* NGSPICE file created from core_prel_parax.ext - technology: sky130A

.subckt core_prel_parax VDD Vbgr VSS
X0 VDD.t24 opout.t11 PLUS.t2 VDD.t23 sky130_fd_pr__pfet_01v8_lvt ad=1.45 pd=10.29 as=1.45 ps=10.29 w=10 l=0.5
X1 VSS.t76 VSS.t77 VSS.t75 sky130_fd_pr__res_xhigh_po_0p35 l=1
X2 a_24605_n9724# a_24371_n10376# VSS.t87 sky130_fd_pr__res_xhigh_po_0p69 l=1.26
X3 VSS.t78 Vbgr.t3 opout.t4 opout.t3 sky130_fd_pr__pfet_01v8_lvt ad=0.29 pd=2.58 as=0.29 ps=2.58 w=1 l=10
X4 Gcm2 opout.t12 VDD.t22 VDD.t21 sky130_fd_pr__pfet_01v8_lvt ad=1.45 pd=10.29 as=1.45 ps=10.29 w=10 l=0.5
X5 MINUS.t3 opout.t13 VDD.t20 VDD.t19 sky130_fd_pr__pfet_01v8_lvt ad=1.45 pd=10.29 as=1.45 ps=10.29 w=10 l=0.5
X6 VSS.t30 VSS.t27 VSS.t29 VSS.t28 sky130_fd_pr__nfet_01v8_lvt ad=0.58 pd=4.58 as=0 ps=0 w=2 l=0.5
X7 VSS.t35 VSS.t64 XQ2[0|0].Emitter sky130_fd_pr__pnp_05v5_W3p40L3p40
**devattr s=462400,2720
X8 VSS.t32 VSS.t63 XQ2[0|0].Emitter sky130_fd_pr__pnp_05v5_W3p40L3p40
**devattr s=462400,2720
X9 VSS.t32 VSS.t62 XQ2[0|0].Emitter sky130_fd_pr__pnp_05v5_W3p40L3p40
**devattr s=462400,2720
X10 a_23884_n8277# a_23718_n8877# VSS.t73 sky130_fd_pr__res_xhigh_po_0p35 l=1
X11 VSS.t35 VSS.t61 XQ2[0|0].Emitter sky130_fd_pr__pnp_05v5_W3p40L3p40
**devattr s=462400,2720
X12 VSS.t32 VSS.t60 XQ2[0|0].Emitter sky130_fd_pr__pnp_05v5_W3p40L3p40
**devattr s=462400,2720
X13 VSS.t32 VSS.t59 XQ2[0|0].Emitter sky130_fd_pr__pnp_05v5_W3p40L3p40
**devattr s=462400,2720
X14 VDD.t18 opout.t14 Vbgr.t2 VDD.t17 sky130_fd_pr__pfet_01v8_lvt ad=1.45 pd=10.29 as=1.45 ps=10.29 w=10 l=0.5
X15 a_24137_n9724# a_23903_n10376# VSS.t74 sky130_fd_pr__res_xhigh_po_0p69 l=1.26
X16 VSS.t35 VSS.t58 XQ2[0|0].Emitter sky130_fd_pr__pnp_05v5_W3p40L3p40
**devattr s=462400,2720
X17 VSS.t32 VSS.t57 XQ2[0|0].Emitter sky130_fd_pr__pnp_05v5_W3p40L3p40
**devattr s=462400,2720
X18 VSS.t83 Vbgr.t4 opout.t8 opout.t7 sky130_fd_pr__pfet_01v8_lvt ad=0.29 pd=2.58 as=0.29 ps=2.58 w=1 l=10
X19 Sop MINUS.t4 opout.t0 VSS.t25 sky130_fd_pr__nfet_01v8_lvt ad=2.32 pd=16.58 as=1.16 ps=8.29 w=8 l=4
X20 VSS.t32 VSS.t56 XQ2[0|0].Emitter sky130_fd_pr__pnp_05v5_W3p40L3p40
**devattr s=462400,2720
X21 VDD.t1 Gcm1.t0 Gcm1.t1 VDD.t0 sky130_fd_pr__pfet_01v8_lvt ad=1.16 pd=8.29 as=2.32 ps=16.58 w=8 l=1
X22 VSS.t17 VSS.t18 VSS.t16 sky130_fd_pr__res_xhigh_po_0p69 l=1.26
X23 VSS.t32 VSS.t55 XQ2[0|0].Emitter sky130_fd_pr__pnp_05v5_W3p40L3p40
**devattr s=462400,2720
X24 VSS.t32 VSS.t65 MINUS.t1 sky130_fd_pr__pnp_05v5_W3p40L3p40
**devattr s=462400,2720
X25 PLUS.t1 XQ2[0|0].Emitter VSS.t21 sky130_fd_pr__res_xhigh_po_0p35 l=0.9
X26 a_24974_n8277# a_24808_n8877# VSS.t66 sky130_fd_pr__res_xhigh_po_0p35 l=1
X27 a_24974_n8277# a_25472_n8877# VSS.t86 sky130_fd_pr__res_xhigh_po_0p35 l=1
X28 PLUS.t0 a_25472_n8877# VSS.t20 sky130_fd_pr__res_xhigh_po_0p35 l=1
X29 VSS.t32 VSS.t54 XQ2[0|0].Emitter sky130_fd_pr__pnp_05v5_W3p40L3p40
**devattr s=462400,2720
X30 VSS.t32 VSS.t53 XQ2[0|0].Emitter sky130_fd_pr__pnp_05v5_W3p40L3p40
**devattr s=462400,2720
X31 Vbgr.t0 a_25307_n10376# VSS.t15 sky130_fd_pr__res_xhigh_po_0p69 l=1.26
X32 VSS.t81 VSS.t82 VSS.t80 sky130_fd_pr__res_xhigh_po_0p35 l=1
X33 a_23669_n9724# a_23435_n10376# VSS.t7 sky130_fd_pr__res_xhigh_po_0p69 l=1.26
X34 a_23669_n9724# a_23903_n10376# VSS.t85 sky130_fd_pr__res_xhigh_po_0p69 l=1.26
X35 VDD.t8 VDD.t6 VDD.t8 VDD.t7 sky130_fd_pr__pfet_01v8_lvt ad=1.45 pd=10.29 as=0 ps=0 w=10 l=0.5
X36 a_25073_n9724# a_24839_n10376# VSS.t26 sky130_fd_pr__res_xhigh_po_0p69 l=1.26
X37 VSS.t32 VSS.t52 XQ2[0|0].Emitter sky130_fd_pr__pnp_05v5_W3p40L3p40
**devattr s=462400,2720
X38 VSS.t32 VSS.t51 XQ2[0|0].Emitter sky130_fd_pr__pnp_05v5_W3p40L3p40
**devattr s=462400,2720
X39 VSS.t32 VSS.t50 XQ2[0|0].Emitter sky130_fd_pr__pnp_05v5_W3p40L3p40
**devattr s=462400,2720
X40 VDD.t16 opout.t15 Gcm2 VDD.t15 sky130_fd_pr__pfet_01v8_lvt ad=1.45 pd=10.29 as=1.45 ps=10.29 w=10 l=0.5
X41 VDD.t14 opout.t16 MINUS.t2 VDD.t13 sky130_fd_pr__pfet_01v8_lvt ad=1.45 pd=10.29 as=1.45 ps=10.29 w=10 l=0.5
X42 Sop PLUS.t4 Gcm1.t3 VSS.t71 sky130_fd_pr__nfet_01v8_lvt ad=1.16 pd=8.29 as=1.16 ps=8.29 w=8 l=4
X43 Sop Gcm2 VSS.t5 VSS.t4 sky130_fd_pr__nfet_01v8_lvt ad=0.29 pd=2.29 as=0.29 ps=2.29 w=2 l=0.5
X44 Gcm2 Gcm2 VSS.t3 VSS.t2 sky130_fd_pr__nfet_01v8_lvt ad=0.29 pd=2.29 as=0.29 ps=2.29 w=2 l=0.5
X45 VSS.t32 VSS.t49 XQ2[0|0].Emitter sky130_fd_pr__pnp_05v5_W3p40L3p40
**devattr s=462400,2720
X46 opout.t10 Gcm1.t4 VDD.t26 VDD.t25 sky130_fd_pr__pfet_01v8_lvt ad=2.32 pd=16.58 as=1.16 ps=8.29 w=8 l=1
X47 VSS.t24 a_23435_n10376# VSS.t23 sky130_fd_pr__res_xhigh_po_0p69 l=1.26
X48 VSS.t32 VSS.t48 XQ2[0|0].Emitter sky130_fd_pr__pnp_05v5_W3p40L3p40
**devattr s=462400,2720
X49 VSS.t32 VSS.t47 XQ2[0|0].Emitter sky130_fd_pr__pnp_05v5_W3p40L3p40
**devattr s=462400,2720
X50 VSS.t32 VSS.t46 XQ2[0|0].Emitter sky130_fd_pr__pnp_05v5_W3p40L3p40
**devattr s=462400,2720
X51 VSS.t32 VSS.t45 XQ2[0|0].Emitter sky130_fd_pr__pnp_05v5_W3p40L3p40
**devattr s=462400,2720
X52 VSS.t13 VSS.t14 VSS.t12 sky130_fd_pr__res_xhigh_po_0p69 l=1.26
X53 VSS.t35 VSS.t44 XQ2[0|0].Emitter sky130_fd_pr__pnp_05v5_W3p40L3p40
**devattr s=462400,2720
X54 PLUS.t3 opout.t17 VDD.t12 VDD.t11 sky130_fd_pr__pfet_01v8_lvt ad=1.45 pd=10.29 as=1.45 ps=10.29 w=10 l=0.5
X55 VSS.t32 VSS.t43 XQ2[0|0].Emitter sky130_fd_pr__pnp_05v5_W3p40L3p40
**devattr s=462400,2720
X56 VDD.t5 VDD.t2 VDD.t4 VDD.t3 sky130_fd_pr__pfet_01v8_lvt ad=2.9 pd=20.58 as=0 ps=0 w=10 l=0.5
X57 a_25073_n9724# a_25307_n10376# VSS.t11 sky130_fd_pr__res_xhigh_po_0p69 l=1.26
X58 VSS.t90 a_23718_n8877# VSS.t89 sky130_fd_pr__res_xhigh_po_0p35 l=1
X59 VSS.t32 VSS.t42 XQ2[0|0].Emitter sky130_fd_pr__pnp_05v5_W3p40L3p40
**devattr s=462400,2720
X60 VSS.t32 VSS.t41 XQ2[0|0].Emitter sky130_fd_pr__pnp_05v5_W3p40L3p40
**devattr s=462400,2720
X61 a_23386_n8277# a_23552_n8877# VSS.t9 sky130_fd_pr__res_xhigh_po_0p35 l=1
X62 a_24050_n8277# a_24216_n8877# VSS.t10 sky130_fd_pr__res_xhigh_po_0p35 l=1
X63 a_24050_n8277# a_23552_n8877# VSS.t84 sky130_fd_pr__res_xhigh_po_0p35 l=1
X64 a_24137_n9724# a_24371_n10376# VSS.t6 sky130_fd_pr__res_xhigh_po_0p69 l=1.26
X65 Gcm1.t2 PLUS.t5 Sop VSS.t70 sky130_fd_pr__nfet_01v8_lvt ad=1.16 pd=8.29 as=2.32 ps=16.58 w=8 l=4
X66 VSS.t32 VSS.t40 XQ2[0|0].Emitter sky130_fd_pr__pnp_05v5_W3p40L3p40
**devattr s=462400,2720
X67 Vbgr.t1 opout.t18 VDD.t10 VDD.t9 sky130_fd_pr__pfet_01v8_lvt ad=1.45 pd=10.29 as=1.45 ps=10.29 w=10 l=0.5
X68 opout.t9 MINUS.t5 Sop VSS.t88 sky130_fd_pr__nfet_01v8_lvt ad=1.16 pd=8.29 as=1.16 ps=8.29 w=8 l=4
X69 a_23884_n8277# a_24808_n8877# VSS.t72 sky130_fd_pr__res_xhigh_po_0p35 l=1
X70 VSS.t1 Gcm2 Sop VSS.t0 sky130_fd_pr__nfet_01v8_lvt ad=0.29 pd=2.29 as=0.29 ps=2.29 w=2 l=0.5
X71 VSS.t39 VSS.t37 Gcm2 VSS.t38 sky130_fd_pr__nfet_01v8_lvt ad=0.58 pd=4.58 as=0.29 ps=2.29 w=2 l=0.5
X72 VSS.t32 VSS.t36 XQ2[0|0].Emitter sky130_fd_pr__pnp_05v5_W3p40L3p40
**devattr s=462400,2720
X73 a_25140_n8277# a_24216_n8877# VSS.t8 sky130_fd_pr__res_xhigh_po_0p35 l=1
X74 a_25140_n8277# MINUS.t0 VSS.t22 sky130_fd_pr__res_xhigh_po_0p35 l=1
X75 a_24605_n9724# a_24839_n10376# VSS.t19 sky130_fd_pr__res_xhigh_po_0p69 l=1.26
X76 VSS.t35 VSS.t34 XQ2[0|0].Emitter sky130_fd_pr__pnp_05v5_W3p40L3p40
**devattr s=462400,2720
X77 VSS.t67 Vbgr.t5 opout.t2 opout.t1 sky130_fd_pr__pfet_01v8_lvt ad=0.29 pd=2.58 as=0.29 ps=2.58 w=1 l=10
X78 VSS.t32 VSS.t33 XQ2[0|0].Emitter sky130_fd_pr__pnp_05v5_W3p40L3p40
**devattr s=462400,2720
X79 VSS.t32 VSS.t31 XQ2[0|0].Emitter sky130_fd_pr__pnp_05v5_W3p40L3p40
**devattr s=462400,2720
X80 VSS.t79 Vbgr.t6 opout.t6 opout.t5 sky130_fd_pr__pfet_01v8_lvt ad=0.29 pd=2.58 as=0.29 ps=2.58 w=1 l=10
X81 a_23386_n8277# VSS.t69 VSS.t68 sky130_fd_pr__res_xhigh_po_0p35 l=1
R0 opout.n1 opout.t14 674.212
R1 opout.n1 opout.t12 674.149
R2 opout.n1 opout.t15 674.149
R3 opout.n1 opout.t17 674.149
R4 opout.n1 opout.t11 674.149
R5 opout.n1 opout.t13 674.149
R6 opout.n1 opout.t16 674.149
R7 opout.n1 opout.t18 674.149
R8 opout.n4 opout.t10 232.543
R9 opout.n0 opout.t6 228.483
R10 opout.n0 opout.t2 228.215
R11 opout.n0 opout.t8 228.215
R12 opout.n0 opout.t4 228.215
R13 opout.n4 opout.n3 211.4
R14 opout.t1 opout.t5 173.161
R15 opout.t7 opout.t3 173.161
R16 opout.n2 opout.t1 86.5808
R17 opout.n2 opout.t7 86.5808
R18 opout.n0 opout.n2 16.5121
R19 opout.n0 opout.n1 8.29418
R20 opout.n3 opout.t0 2.1755
R21 opout.n3 opout.t9 2.1755
R22 opout.n4 opout.n0 1.94511
R23 PLUS.n2 PLUS.n0 276.264
R24 PLUS.n3 PLUS.t5 67.4131
R25 PLUS.n3 PLUS.t4 66.1779
R26 PLUS.n1 PLUS.t1 53.7169
R27 PLUS.n1 PLUS.t0 43.8915
R28 PLUS PLUS.n2 10.7127
R29 PLUS PLUS.n3 7.65631
R30 PLUS.n0 PLUS.t2 2.857
R31 PLUS.n0 PLUS.t3 2.857
R32 PLUS.n2 PLUS.n1 0.40761
R33 VDD.n2 VDD.t6 675.381
R34 VDD.n13 VDD.t2 674.89
R35 VDD.n21 VDD.t0 385.031
R36 VDD.n24 VDD.t25 374.053
R37 VDD.n15 VDD.t5 278.337
R38 VDD.t8 VDD.n1 278.334
R39 VDD.n12 VDD.n11 275.077
R40 VDD.n10 VDD.n9 275.077
R41 VDD.n8 VDD.n7 275.077
R42 VDD.n6 VDD.n5 275.077
R43 VDD.n4 VDD.n3 275.077
R44 VDD.n23 VDD.n22 227.799
R45 VDD.n18 VDD.n17 162.465
R46 VDD.n16 VDD.n14 152.345
R47 VDD.t3 VDD.n16 143.857
R48 VDD.n17 VDD.t7 140.78
R49 VDD.t0 VDD.t25 139.103
R50 VDD.n17 VDD.n1 118.692
R51 VDD.n16 VDD.n15 116.584
R52 VDD.t7 VDD.t17 69.427
R53 VDD.t17 VDD.t9 69.427
R54 VDD.t9 VDD.t13 69.427
R55 VDD.t13 VDD.t19 69.427
R56 VDD.t19 VDD.t23 69.427
R57 VDD.t23 VDD.t11 69.427
R58 VDD.t11 VDD.t15 69.427
R59 VDD.t15 VDD.t21 69.427
R60 VDD.t21 VDD.t3 69.427
R61 VDD.n22 VDD.t26 3.57113
R62 VDD.n22 VDD.t1 3.57113
R63 VDD.n11 VDD.t22 2.857
R64 VDD.n11 VDD.t4 2.857
R65 VDD.n9 VDD.t12 2.857
R66 VDD.n9 VDD.t16 2.857
R67 VDD.n7 VDD.t20 2.857
R68 VDD.n7 VDD.t24 2.857
R69 VDD.n5 VDD.t10 2.857
R70 VDD.n5 VDD.t14 2.857
R71 VDD.n3 VDD.t8 2.857
R72 VDD.n3 VDD.t18 2.857
R73 VDD.n14 VDD.n0 2.26217
R74 VDD.n19 VDD.n18 2.26217
R75 VDD.n19 VDD.n1 2.09911
R76 VDD.n15 VDD.n0 1.99684
R77 VDD.n21 VDD 1.32496
R78 VDD.n25 VDD.n24 1.29507
R79 VDD.n26 VDD.n20 0.975159
R80 VDD.n20 VDD.n19 0.723704
R81 VDD.n23 VDD.n21 0.286437
R82 VDD.n24 VDD.n23 0.275891
R83 VDD.n20 VDD.n0 0.218658
R84 VDD.n26 VDD.n25 0.214974
R85 VDD.n13 VDD.n12 0.143692
R86 VDD.n4 VDD.n2 0.1405
R87 VDD.n6 VDD.n4 0.122038
R88 VDD.n8 VDD.n6 0.122038
R89 VDD.n10 VDD.n8 0.122038
R90 VDD.n12 VDD.n10 0.122038
R91 VDD VDD.n26 0.04985
R92 VDD.n26 VDD 0.0299078
R93 VDD.n25 VDD 0.00829732
R94 VDD.n14 VDD.n13 0.00176918
R95 VDD.n18 VDD.n2 0.00165385
R96 VSS.n4313 VSS.n2055 122426
R97 VSS.n4304 VSS.n2055 35909.3
R98 VSS.n4311 VSS.n4232 15870.1
R99 VSS.n4291 VSS.n4238 12208.2
R100 VSS.n4278 VSS.n4277 7289
R101 VSS.n4279 VSS.n4277 7289
R102 VSS.n4263 VSS.n4254 7289
R103 VSS.n4264 VSS.n4254 7289
R104 VSS.n4255 VSS.n4249 6993.5
R105 VSS.n4269 VSS.n4250 6993.5
R106 VSS.n4318 VSS.n2055 6981.01
R107 VSS.n4335 VSS.n4318 4974.74
R108 VSS.n4279 VSS.n4269 3743
R109 VSS.n4264 VSS.n4255 3743
R110 VSS.n4278 VSS.n4250 3644.5
R111 VSS.n4263 VSS.n4249 3644.5
R112 VSS.n4335 VSS.n4334 3409.8
R113 VSS.t35 VSS.n1746 2890.74
R114 VSS.n4655 VSS.n1702 2277.04
R115 VSS.n4310 VSS.n4309 2062.31
R116 VSS.n3187 VSS.n3186 1851.56
R117 VSS.n4308 VSS.n4231 1679.57
R118 VSS.n2626 VSS.n2588 1634.59
R119 VSS.n2691 VSS.n2661 1559.06
R120 VSS.n2691 VSS.n2690 1559.06
R121 VSS.n2690 VSS.n2689 1559.06
R122 VSS.n2689 VSS.n2667 1559.06
R123 VSS.n2667 VSS.n1736 1559.06
R124 VSS.n2681 VSS.n1737 1559.06
R125 VSS.n2681 VSS.n2680 1559.06
R126 VSS.n2680 VSS.n2679 1559.06
R127 VSS.n2679 VSS.n2673 1559.06
R128 VSS.n2673 VSS.n1738 1559.06
R129 VSS.n3186 VSS.n3185 1559.06
R130 VSS.n3185 VSS.n3156 1559.06
R131 VSS.n3179 VSS.n3156 1559.06
R132 VSS.n3179 VSS.n3178 1559.06
R133 VSS.n3175 VSS.n3174 1559.06
R134 VSS.n3174 VSS.n3173 1559.06
R135 VSS.n3173 VSS.n3161 1559.06
R136 VSS.n3165 VSS.n3161 1559.06
R137 VSS.n3166 VSS.n3165 1559.06
R138 VSS.n4329 VSS.n4328 1540.86
R139 VSS.n4328 VSS.n4327 1540.86
R140 VSS.n4327 VSS.n1747 1540.86
R141 VSS.n4638 VSS.n1732 1540.86
R142 VSS.n4644 VSS.n1732 1540.86
R143 VSS.n4645 VSS.n4644 1540.86
R144 VSS.n4648 VSS.n4645 1540.86
R145 VSS.n4648 VSS.n4647 1540.86
R146 VSS.n4647 VSS.n4646 1540.86
R147 VSS.n4656 VSS.n4655 1540.86
R148 VSS.n4680 VSS.n4656 1540.86
R149 VSS.n4680 VSS.n4679 1540.86
R150 VSS.n4679 VSS.n4678 1540.86
R151 VSS.n4678 VSS.n4657 1540.86
R152 VSS.n4672 VSS.n4671 1540.86
R153 VSS.n4671 VSS.n4670 1540.86
R154 VSS.n4670 VSS.n4661 1540.86
R155 VSS.n4664 VSS.n4661 1540.86
R156 VSS.n4664 VSS.n4663 1540.86
R157 VSS.n4289 VSS.n4240 1332.39
R158 VSS.n4243 VSS.n4239 1311.29
R159 VSS.n4646 VSS.n1702 1284.05
R160 VSS.t35 VSS.n1736 1056.69
R161 VSS.n3178 VSS.t32 1056.69
R162 VSS.t35 VSS.n1747 1044.36
R163 VSS.n4657 VSS.t32 1044.36
R164 VSS.n4255 VSS.n4248 857.529
R165 VSS.n4269 VSS.n4248 857.529
R166 VSS.n2598 VSS.n1702 855.557
R167 VSS.n4038 VSS.t32 855.557
R168 VSS.n4065 VSS.t32 855.557
R169 VSS.n4081 VSS.n4075 855.557
R170 VSS.n4099 VSS.n4091 855.557
R171 VSS.n4284 VSS.n4249 840.148
R172 VSS.n4284 VSS.n4250 840.148
R173 VSS.n4317 VSS.n4229 827.635
R174 VSS.n4317 VSS.n4316 785.924
R175 VSS.n4247 VSS.n4229 766.952
R176 VSS.n4336 VSS.n4335 728.679
R177 VSS.n4287 VSS.n4230 724.09
R178 VSS.n4334 VSS.n4319 718.693
R179 VSS.n3098 VSS.n3097 665.731
R180 VSS.t35 VSS.n1740 665.731
R181 VSS.t35 VSS.n1753 665.731
R182 VSS.t35 VSS.n1750 665.731
R183 VSS.t35 VSS.n1738 658.269
R184 VSS.n3166 VSS.t32 658.269
R185 VSS.n3097 VSS.n3096 648.096
R186 VSS.t35 VSS.n1739 648.096
R187 VSS.t35 VSS.n4637 648.096
R188 VSS.t35 VSS.n1751 648.096
R189 VSS.n4191 VSS.n4156 641.164
R190 VSS.n4663 VSS.n1245 616.342
R191 VSS.n5350 VSS.n194 585
R192 VSS.n5350 VSS.n5349 585
R193 VSS.n218 VSS.n202 585
R194 VSS.n5344 VSS.n218 585
R195 VSS.n3634 VSS.n220 585
R196 VSS.n5006 VSS.n5005 585
R197 VSS.n5026 VSS.n699 585
R198 VSS.n5027 VSS.n5026 585
R199 VSS.n4841 VSS.n186 585
R200 VSS.n5360 VSS.n186 585
R201 VSS.n4841 VSS.n187 585
R202 VSS.n5360 VSS.n187 585
R203 VSS.n5032 VSS.n185 585
R204 VSS.n5360 VSS.n185 585
R205 VSS.n5032 VSS.n188 585
R206 VSS.n5360 VSS.n188 585
R207 VSS.n5358 VSS.n184 585
R208 VSS.n5360 VSS.n184 585
R209 VSS.n5359 VSS.n5358 585
R210 VSS.n5360 VSS.n5359 585
R211 VSS.n4197 VSS.n69 585
R212 VSS.n5357 VSS.n189 585
R213 VSS.n5357 VSS.n5356 585
R214 VSS.n5031 VSS.n693 585
R215 VSS.n5031 VSS.n5030 585
R216 VSS.n4840 VSS.n886 585
R217 VSS.n4840 VSS.n4839 585
R218 VSS.n4839 VSS.n69 585
R219 VSS.n4839 VSS.n888 585
R220 VSS.n888 VSS.n886 585
R221 VSS.n886 VSS.n71 585
R222 VSS.n5030 VSS.n5029 585
R223 VSS.n5030 VSS.n71 585
R224 VSS.n5029 VSS.n693 585
R225 VSS.n693 VSS.n71 585
R226 VSS.n5356 VSS.n5355 585
R227 VSS.n5356 VSS.n71 585
R228 VSS.n5355 VSS.n189 585
R229 VSS.n189 VSS.n71 585
R230 VSS.n996 VSS.n995 585
R231 VSS.n995 VSS.n994 585
R232 VSS.n1033 VSS.n998 585
R233 VSS.n958 VSS.n225 585
R234 VSS.n5341 VSS.n225 585
R235 VSS.n958 VSS.n226 585
R236 VSS.n5341 VSS.n226 585
R237 VSS.n5011 VSS.n224 585
R238 VSS.n5341 VSS.n224 585
R239 VSS.n5011 VSS.n227 585
R240 VSS.n5341 VSS.n227 585
R241 VSS.n5342 VSS.n219 585
R242 VSS.n5342 VSS.n5341 585
R243 VSS.n221 VSS.n219 585
R244 VSS.n5341 VSS.n221 585
R245 VSS.n4097 VSS.n27 585
R246 VSS.n3805 VSS.n3631 585
R247 VSS.n3631 VSS.n222 585
R248 VSS.n5010 VSS.n718 585
R249 VSS.n5010 VSS.n5009 585
R250 VSS.n1177 VSS.n955 585
R251 VSS.n1179 VSS.n955 585
R252 VSS.n1179 VSS.n27 585
R253 VSS.n1179 VSS.n1178 585
R254 VSS.n1178 VSS.n1177 585
R255 VSS.n1177 VSS.n29 585
R256 VSS.n5009 VSS.n5008 585
R257 VSS.n5009 VSS.n29 585
R258 VSS.n5008 VSS.n718 585
R259 VSS.n718 VSS.n29 585
R260 VSS.n3806 VSS.n222 585
R261 VSS.n222 VSS.n29 585
R262 VSS.n3806 VSS.n3805 585
R263 VSS.n3805 VSS.n29 585
R264 VSS.n607 VSS.n575 585
R265 VSS.n5339 VSS.n223 585
R266 VSS.n5341 VSS.n223 585
R267 VSS.n5340 VSS.n5339 585
R268 VSS.n5341 VSS.n5340 585
R269 VSS.n5338 VSS.n228 585
R270 VSS.n228 VSS.n27 585
R271 VSS.n5338 VSS.n5337 585
R272 VSS.n5337 VSS.n5336 585
R273 VSS.n5337 VSS.n29 585
R274 VSS.n5336 VSS.n228 585
R275 VSS.n5334 VSS.n5333 585
R276 VSS.n5362 VSS.n180 585
R277 VSS.n5360 VSS.n180 585
R278 VSS.n5362 VSS.n5361 585
R279 VSS.n5361 VSS.n5360 585
R280 VSS.n182 VSS.n181 585
R281 VSS.n182 VSS.n69 585
R282 VSS.n572 VSS.n181 585
R283 VSS.n610 VSS.n572 585
R284 VSS.n572 VSS.n71 585
R285 VSS.n610 VSS.n182 585
R286 VSS.n608 VSS.n607 585
R287 VSS.n5377 VSS.n163 585
R288 VSS.n5047 VSS.n676 585
R289 VSS.n4856 VSS.n869 585
R290 VSS.n2206 VSS.n2205 585
R291 VSS.n3418 VSS.n3417 585
R292 VSS.n3954 VSS.n3922 585
R293 VSS.n5084 VSS.n5054 585
R294 VSS.n4560 VSS.n4559 585
R295 VSS.n2998 VSS.n2965 585
R296 VSS.n2963 VSS.n2930 585
R297 VSS.n1954 VSS.n1952 585
R298 VSS.n3961 VSS.n1952 585
R299 VSS.n1954 VSS.n1890 585
R300 VSS.n3961 VSS.n1890 585
R301 VSS.n2983 VSS.n2211 585
R302 VSS.n3961 VSS.n2211 585
R303 VSS.n2983 VSS.n2213 585
R304 VSS.n3961 VSS.n2213 585
R305 VSS.n3959 VSS.n2210 585
R306 VSS.n3961 VSS.n2210 585
R307 VSS.n3960 VSS.n3959 585
R308 VSS.n3961 VSS.n3960 585
R309 VSS.n2209 VSS.n2208 585
R310 VSS.n3961 VSS.n2209 585
R311 VSS.n3962 VSS.n2208 585
R312 VSS.n3962 VSS.n3961 585
R313 VSS.n2114 VSS.n2067 585
R314 VSS.n3963 VSS.n2170 585
R315 VSS.n2171 VSS.n2170 585
R316 VSS.n3958 VSS.n2214 585
R317 VSS.n3958 VSS.n3957 585
R318 VSS.n3443 VSS.n2325 585
R319 VSS.n2329 VSS.n2325 585
R320 VSS.n4563 VSS.n1889 585
R321 VSS.n1950 VSS.n1889 585
R322 VSS.n4780 VSS.n1250 585
R323 VSS.n1252 VSS.n1250 585
R324 VSS.n1844 VSS.n1250 585
R325 VSS.n4562 VSS.n1950 585
R326 VSS.n1950 VSS.n1844 585
R327 VSS.n4563 VSS.n4562 585
R328 VSS.n4563 VSS.n1844 585
R329 VSS.n3444 VSS.n2329 585
R330 VSS.n2329 VSS.n1844 585
R331 VSS.n3444 VSS.n3443 585
R332 VSS.n3443 VSS.n1844 585
R333 VSS.n3957 VSS.n3956 585
R334 VSS.n3957 VSS.n1844 585
R335 VSS.n3956 VSS.n2214 585
R336 VSS.n2214 VSS.n1844 585
R337 VSS.n3964 VSS.n2171 585
R338 VSS.n2171 VSS.n1844 585
R339 VSS.n3964 VSS.n3963 585
R340 VSS.n3963 VSS.n1844 585
R341 VSS.n2067 VSS.n2065 585
R342 VSS.n2067 VSS.n1844 585
R343 VSS.n4526 VSS.n4525 585
R344 VSS.n2697 VSS.n2692 585
R345 VSS.n2697 VSS.n2696 585
R346 VSS.n3061 VSS.n2748 585
R347 VSS.n3059 VSS.n2748 585
R348 VSS.n3061 VSS.n3060 585
R349 VSS.n3060 VSS.n3059 585
R350 VSS.n3060 VSS.n1748 585
R351 VSS.n3026 VSS.n2810 585
R352 VSS.n2810 VSS.n1757 585
R353 VSS.n3026 VSS.n3025 585
R354 VSS.n3025 VSS.n1757 585
R355 VSS.n3025 VSS.n1744 585
R356 VSS.n4498 VSS.n1998 585
R357 VSS.n4498 VSS.n4497 585
R358 VSS.n4496 VSS.n1998 585
R359 VSS.n4497 VSS.n4496 585
R360 VSS.n4496 VSS.n1745 585
R361 VSS.n3154 VSS.n2496 585
R362 VSS.n3188 VSS.n2496 585
R363 VSS.n3386 VSS.n2461 585
R364 VSS.n3420 VSS.n2461 585
R365 VSS.n2461 VSS.n1748 585
R366 VSS.n3001 VSS.n2903 585
R367 VSS.n3001 VSS.n3000 585
R368 VSS.n3001 VSS.n1744 585
R369 VSS.n4521 VSS.n1965 585
R370 VSS.n4523 VSS.n4521 585
R371 VSS.n4521 VSS.n1745 585
R372 VSS.n4523 VSS.n4522 585
R373 VSS.n4522 VSS.n1672 585
R374 VSS.n1965 VSS.n1964 585
R375 VSS.n1964 VSS.n1672 585
R376 VSS.n3000 VSS.n2928 585
R377 VSS.n2928 VSS.n1672 585
R378 VSS.n2904 VSS.n2903 585
R379 VSS.n2904 VSS.n1672 585
R380 VSS.n3420 VSS.n2462 585
R381 VSS.n2462 VSS.n1672 585
R382 VSS.n3386 VSS.n3385 585
R383 VSS.n3385 VSS.n1672 585
R384 VSS.n3188 VSS.n2497 585
R385 VSS.n2497 VSS.n1672 585
R386 VSS.n3154 VSS.n3153 585
R387 VSS.n3153 VSS.n1672 585
R388 VSS.n4687 VSS.n1701 585
R389 VSS.n4687 VSS.n1703 585
R390 VSS.n4687 VSS.n1695 585
R391 VSS.n4687 VSS.n1704 585
R392 VSS.n4687 VSS.n1689 585
R393 VSS.n4687 VSS.n1705 585
R394 VSS.n4687 VSS.n1683 585
R395 VSS.n4687 VSS.n1706 585
R396 VSS.n4687 VSS.n1677 585
R397 VSS.n4687 VSS.n4686 585
R398 VSS.n3188 VSS.n2495 585
R399 VSS.n3188 VSS.n3187 585
R400 VSS.n3386 VSS.n2460 585
R401 VSS.n3420 VSS.n2460 585
R402 VSS.n3419 VSS.n3386 585
R403 VSS.n3420 VSS.n3419 585
R404 VSS.n3419 VSS.n3418 585
R405 VSS.n2907 VSS.n2903 585
R406 VSS.n3000 VSS.n2907 585
R407 VSS.n2999 VSS.n2903 585
R408 VSS.n3000 VSS.n2999 585
R409 VSS.n2999 VSS.n2998 585
R410 VSS.n1990 VSS.n1965 585
R411 VSS.n4523 VSS.n1990 585
R412 VSS.n4524 VSS.n1965 585
R413 VSS.n4524 VSS.n4523 585
R414 VSS.n4525 VSS.n4524 585
R415 VSS.n5379 VSS.n158 585
R416 VSS.n162 VSS.n158 585
R417 VSS.n2205 VSS.n158 585
R418 VSS.n5086 VSS.n658 585
R419 VSS.n3922 VSS.n658 585
R420 VSS.n5053 VSS.n658 585
R421 VSS.n5049 VSS.n672 585
R422 VSS.n2930 VSS.n672 585
R423 VSS.n675 VSS.n672 585
R424 VSS.n4858 VSS.n864 585
R425 VSS.n868 VSS.n864 585
R426 VSS.n4559 VSS.n864 585
R427 VSS.n868 VSS.n665 585
R428 VSS.n5051 VSS.n665 585
R429 VSS.n4858 VSS.n667 585
R430 VSS.n5051 VSS.n667 585
R431 VSS.n675 VSS.n664 585
R432 VSS.n5051 VSS.n664 585
R433 VSS.n5050 VSS.n5049 585
R434 VSS.n5051 VSS.n5050 585
R435 VSS.n5053 VSS.n5052 585
R436 VSS.n5052 VSS.n5051 585
R437 VSS.n5086 VSS.n656 585
R438 VSS.n5051 VSS.n656 585
R439 VSS.n630 VSS.n162 585
R440 VSS.n5051 VSS.n630 585
R441 VSS.n5379 VSS.n156 585
R442 VSS.n5051 VSS.n156 585
R443 VSS.n5413 VSS.n129 585
R444 VSS.n5381 VSS.n129 585
R445 VSS.n5120 VSS.n129 585
R446 VSS.n5088 VSS.n129 585
R447 VSS.n663 VSS.n129 585
R448 VSS.n668 VSS.n129 585
R449 VSS.n4892 VSS.n129 585
R450 VSS.n4860 VSS.n129 585
R451 VSS.n4739 VSS.n129 585
R452 VSS.n1484 VSS.n129 585
R453 VSS.n5379 VSS.n157 585
R454 VSS.n162 VSS.n157 585
R455 VSS.n5379 VSS.n5378 585
R456 VSS.n5378 VSS.n162 585
R457 VSS.n5378 VSS.n5377 585
R458 VSS.n5086 VSS.n657 585
R459 VSS.n5053 VSS.n657 585
R460 VSS.n5086 VSS.n5085 585
R461 VSS.n5085 VSS.n5053 585
R462 VSS.n5085 VSS.n5084 585
R463 VSS.n5049 VSS.n671 585
R464 VSS.n675 VSS.n671 585
R465 VSS.n5049 VSS.n5048 585
R466 VSS.n5048 VSS.n675 585
R467 VSS.n5048 VSS.n5047 585
R468 VSS.n4858 VSS.n863 585
R469 VSS.n868 VSS.n863 585
R470 VSS.n4858 VSS.n4857 585
R471 VSS.n4857 VSS.n868 585
R472 VSS.n4857 VSS.n4856 585
R473 VSS.n1509 VSS.n1386 585
R474 VSS.n1386 VSS.n69 585
R475 VSS.n1386 VSS.n1383 585
R476 VSS.n1557 VSS.n1381 585
R477 VSS.n1557 VSS.n27 585
R478 VSS.n1557 VSS.n1556 585
R479 VSS.n5332 VSS.n5331 585
R480 VSS.n5333 VSS.n5332 585
R481 VSS.n3646 VSS.n3634 585
R482 VSS.n3646 VSS.n312 585
R483 VSS.n5004 VSS.n293 585
R484 VSS.n5005 VSS.n5004 585
R485 VSS.n1006 VSS.n998 585
R486 VSS.n1006 VSS.n273 585
R487 VSS.n5328 VSS.n273 585
R488 VSS.n293 VSS.n271 585
R489 VSS.n312 VSS.n270 585
R490 VSS.n5331 VSS.n5330 585
R491 VSS.n5329 VSS.n12 585
R492 VSS.n5499 VSS.n5498 585
R493 VSS.n5501 VSS.n11 585
R494 VSS.n5504 VSS.n5503 585
R495 VSS.n8 VSS.n7 585
R496 VSS.n5511 VSS.n5510 585
R497 VSS.n5514 VSS.n5513 585
R498 VSS.n5 VSS.n0 585
R499 VSS.n485 VSS.n1 585
R500 VSS.n489 VSS.n488 585
R501 VSS.n491 VSS.n482 585
R502 VSS.n497 VSS.n496 585
R503 VSS.n494 VSS.n493 585
R504 VSS.n327 VSS.n268 585
R505 VSS.n330 VSS.n329 585
R506 VSS.n5201 VSS.n5200 585
R507 VSS.n5203 VSS.n326 585
R508 VSS.n5206 VSS.n5205 585
R509 VSS.n323 VSS.n322 585
R510 VSS.n5216 VSS.n5215 585
R511 VSS.n5218 VSS.n321 585
R512 VSS.n5221 VSS.n5220 585
R513 VSS.n318 VSS.n314 585
R514 VSS.n5232 VSS.n5231 585
R515 VSS.n5234 VSS.n313 585
R516 VSS.n5238 VSS.n5237 585
R517 VSS.n309 VSS.n308 585
R518 VSS.n5247 VSS.n5246 585
R519 VSS.n5249 VSS.n307 585
R520 VSS.n5252 VSS.n5251 585
R521 VSS.n304 VSS.n303 585
R522 VSS.n5262 VSS.n5261 585
R523 VSS.n5264 VSS.n302 585
R524 VSS.n5267 VSS.n5266 585
R525 VSS.n299 VSS.n295 585
R526 VSS.n5278 VSS.n5277 585
R527 VSS.n5280 VSS.n294 585
R528 VSS.n5284 VSS.n5283 585
R529 VSS.n290 VSS.n289 585
R530 VSS.n5293 VSS.n5292 585
R531 VSS.n5295 VSS.n288 585
R532 VSS.n5298 VSS.n5297 585
R533 VSS.n285 VSS.n284 585
R534 VSS.n5308 VSS.n5307 585
R535 VSS.n5310 VSS.n283 585
R536 VSS.n5313 VSS.n5312 585
R537 VSS.n280 VSS.n276 585
R538 VSS.n5324 VSS.n5323 585
R539 VSS.n5326 VSS.n275 585
R540 VSS.n1202 VSS.n274 585
R541 VSS.n1207 VSS.n1204 585
R542 VSS.n4818 VSS.n4817 585
R543 VSS.n4815 VSS.n4814 585
R544 VSS.n4811 VSS.n1208 585
R545 VSS.n1211 VSS.n1209 585
R546 VSS.n4806 VSS.n4805 585
R547 VSS.n4803 VSS.n4802 585
R548 VSS.n4798 VSS.n1212 585
R549 VSS.n1217 VSS.n1214 585
R550 VSS.n4793 VSS.n4792 585
R551 VSS.n4790 VSS.n4789 585
R552 VSS.n2589 VSS.n2588 585
R553 VSS.n2621 VSS.n2620 585
R554 VSS.n2591 VSS.n2590 585
R555 VSS.n2619 VSS.n2591 585
R556 VSS.n2617 VSS.n2616 585
R557 VSS.n2618 VSS.n2617 585
R558 VSS.n2615 VSS.n2593 585
R559 VSS.n2593 VSS.n2592 585
R560 VSS.n2614 VSS.n2613 585
R561 VSS.n2613 VSS.n1742 585
R562 VSS.n2612 VSS.n2594 585
R563 VSS.n2612 VSS.n1741 585
R564 VSS.n2611 VSS.n2596 585
R565 VSS.n2611 VSS.n2610 585
R566 VSS.n2605 VSS.n2595 585
R567 VSS.n2609 VSS.n2595 585
R568 VSS.n2607 VSS.n2606 585
R569 VSS.n2608 VSS.n2607 585
R570 VSS.n2604 VSS.n2078 585
R571 VSS.n2604 VSS.n2597 585
R572 VSS.n2603 VSS.n2602 585
R573 VSS.n2601 VSS.n2600 585
R574 VSS.n2599 VSS.n2598 585
R575 VSS.n2077 VSS.n2076 585
R576 VSS.n4015 VSS.n4014 585
R577 VSS.n4016 VSS.n4015 585
R578 VSS.n2075 VSS.n2074 585
R579 VSS.n4017 VSS.n2075 585
R580 VSS.n4021 VSS.n4020 585
R581 VSS.n4020 VSS.n4019 585
R582 VSS.n4022 VSS.n2073 585
R583 VSS.n4018 VSS.n2073 585
R584 VSS.n4024 VSS.n4023 585
R585 VSS.n4025 VSS.n4024 585
R586 VSS.n2072 VSS.n2071 585
R587 VSS.n4026 VSS.n2072 585
R588 VSS.n4029 VSS.n4028 585
R589 VSS.n4028 VSS.n4027 585
R590 VSS.n4030 VSS.n2070 585
R591 VSS.n2070 VSS.n2069 585
R592 VSS.n4033 VSS.n4032 585
R593 VSS.n4034 VSS.n4033 585
R594 VSS.n4031 VSS.n2066 585
R595 VSS.n4035 VSS.n2066 585
R596 VSS.n4037 VSS.n2068 585
R597 VSS.n4037 VSS.n4036 585
R598 VSS.n4040 VSS.n4039 585
R599 VSS.n4039 VSS.n4038 585
R600 VSS.n4041 VSS.n2064 585
R601 VSS.n2064 VSS.n2063 585
R602 VSS.n4043 VSS.n4042 585
R603 VSS.n4044 VSS.n4043 585
R604 VSS.n2062 VSS.n2061 585
R605 VSS.n4045 VSS.n2062 585
R606 VSS.n4049 VSS.n4048 585
R607 VSS.n4048 VSS.n4047 585
R608 VSS.n4050 VSS.n2060 585
R609 VSS.n4046 VSS.n2060 585
R610 VSS.n4052 VSS.n4051 585
R611 VSS.n4053 VSS.n4052 585
R612 VSS.n2059 VSS.n2058 585
R613 VSS.n4054 VSS.n2059 585
R614 VSS.n4058 VSS.n4057 585
R615 VSS.n4057 VSS.n4056 585
R616 VSS.n4059 VSS.n2057 585
R617 VSS.n4055 VSS.n2057 585
R618 VSS.n4223 VSS.n4222 585
R619 VSS.n4223 VSS.n2056 585
R620 VSS.n4226 VSS.n4225 585
R621 VSS.n4227 VSS.n128 585
R622 VSS.n4065 VSS.n4064 585
R623 VSS.n4066 VSS.n4061 585
R624 VSS.n4220 VSS.n4219 585
R625 VSS.n4219 VSS.n4218 585
R626 VSS.n4062 VSS.n4060 585
R627 VSS.n4217 VSS.n4062 585
R628 VSS.n4215 VSS.n4214 585
R629 VSS.n4216 VSS.n4215 585
R630 VSS.n4213 VSS.n4068 585
R631 VSS.n4068 VSS.n4067 585
R632 VSS.n4212 VSS.n4211 585
R633 VSS.n4211 VSS.n4210 585
R634 VSS.n4070 VSS.n4069 585
R635 VSS.n4209 VSS.n4070 585
R636 VSS.n4207 VSS.n4206 585
R637 VSS.n4208 VSS.n4207 585
R638 VSS.n4205 VSS.n4072 585
R639 VSS.n4072 VSS.n4071 585
R640 VSS.n4204 VSS.n4203 585
R641 VSS.n4203 VSS.n4202 585
R642 VSS.n4201 VSS.n4074 585
R643 VSS.n4200 VSS.n4199 585
R644 VSS.n4081 VSS.n4076 585
R645 VSS.n4082 VSS.n4079 585
R646 VSS.n4156 VSS.n4155 585
R647 VSS.n4155 VSS.n4154 585
R648 VSS.n4080 VSS.n4077 585
R649 VSS.n4153 VSS.n4080 585
R650 VSS.n4151 VSS.n4150 585
R651 VSS.n4152 VSS.n4151 585
R652 VSS.n4149 VSS.n4084 585
R653 VSS.n4084 VSS.n4083 585
R654 VSS.n4148 VSS.n4147 585
R655 VSS.n4147 VSS.n4146 585
R656 VSS.n4086 VSS.n4085 585
R657 VSS.n4145 VSS.n4086 585
R658 VSS.n4143 VSS.n4142 585
R659 VSS.n4144 VSS.n4143 585
R660 VSS.n4141 VSS.n4088 585
R661 VSS.n4088 VSS.n4087 585
R662 VSS.n4140 VSS.n4139 585
R663 VSS.n4139 VSS.n4138 585
R664 VSS.n4137 VSS.n4090 585
R665 VSS.n4136 VSS.n4135 585
R666 VSS.n4099 VSS.n4092 585
R667 VSS.n4130 VSS.n4129 585
R668 VSS.n4102 VSS.n4098 585
R669 VSS.n4128 VSS.n4098 585
R670 VSS.n4126 VSS.n4125 585
R671 VSS.n4127 VSS.n4126 585
R672 VSS.n4124 VSS.n4101 585
R673 VSS.n4101 VSS.n4100 585
R674 VSS.n4123 VSS.n4122 585
R675 VSS.n4122 VSS.n4121 585
R676 VSS.n4120 VSS.n4103 585
R677 VSS.n4120 VSS.n4119 585
R678 VSS.n4107 VSS.n4104 585
R679 VSS.n4118 VSS.n4104 585
R680 VSS.n4116 VSS.n4115 585
R681 VSS.n4117 VSS.n4116 585
R682 VSS.n4114 VSS.n4106 585
R683 VSS.n4106 VSS.n4105 585
R684 VSS.n4113 VSS.n4112 585
R685 VSS.n4112 VSS.n4111 585
R686 VSS.n4110 VSS.n4109 585
R687 VSS.n4320 VSS.n2054 585
R688 VSS.n4336 VSS.n2054 585
R689 VSS.n4339 VSS.n4338 585
R690 VSS.n4338 VSS.n4337 585
R691 VSS.n4341 VSS.n2030 585
R692 VSS.n2030 VSS.n2029 585
R693 VSS.n4345 VSS.n4344 585
R694 VSS.n4346 VSS.n4345 585
R695 VSS.n2031 VSS.n2027 585
R696 VSS.n4347 VSS.n2027 585
R697 VSS.n4350 VSS.n4349 585
R698 VSS.n4349 VSS.n4348 585
R699 VSS.n2026 VSS.n2024 585
R700 VSS.n2028 VSS.n2026 585
R701 VSS.n4355 VSS.n2004 585
R702 VSS.n2004 VSS.n2003 585
R703 VSS.n4360 VSS.n4359 585
R704 VSS.n4361 VSS.n4360 585
R705 VSS.n2022 VSS.n2001 585
R706 VSS.n4362 VSS.n2001 585
R707 VSS.n4364 VSS.n2002 585
R708 VSS.n4364 VSS.n4363 585
R709 VSS.n4365 VSS.n2000 585
R710 VSS.n4365 VSS.n1751 585
R711 VSS.n4494 VSS.n4493 585
R712 VSS.n4494 VSS.n1750 585
R713 VSS.n4491 VSS.n4366 585
R714 VSS.n4486 VSS.n4366 585
R715 VSS.n4489 VSS.n4488 585
R716 VSS.n4488 VSS.n4487 585
R717 VSS.n4478 VSS.n4455 585
R718 VSS.n4485 VSS.n4455 585
R719 VSS.n4483 VSS.n4482 585
R720 VSS.n4484 VSS.n4483 585
R721 VSS.n4476 VSS.n4457 585
R722 VSS.n4457 VSS.n4456 585
R723 VSS.n4464 VSS.n4458 585
R724 VSS.n4468 VSS.n4464 585
R725 VSS.n4471 VSS.n4470 585
R726 VSS.n4470 VSS.n4469 585
R727 VSS.n4463 VSS.n4462 585
R728 VSS.n4467 VSS.n4463 585
R729 VSS.n4465 VSS.n1759 585
R730 VSS.n4466 VSS.n4465 585
R731 VSS.n4633 VSS.n1756 585
R732 VSS.n1756 VSS.n1754 585
R733 VSS.n4636 VSS.n4635 585
R734 VSS.n4637 VSS.n4636 585
R735 VSS.n3028 VSS.n3027 585
R736 VSS.n3028 VSS.n1753 585
R737 VSS.n3031 VSS.n3030 585
R738 VSS.n3030 VSS.n3029 585
R739 VSS.n3033 VSS.n2804 585
R740 VSS.n2804 VSS.n2803 585
R741 VSS.n3037 VSS.n3036 585
R742 VSS.n3038 VSS.n3037 585
R743 VSS.n2805 VSS.n2801 585
R744 VSS.n3039 VSS.n2801 585
R745 VSS.n3042 VSS.n3041 585
R746 VSS.n3041 VSS.n3040 585
R747 VSS.n2800 VSS.n2798 585
R748 VSS.n2802 VSS.n2800 585
R749 VSS.n3047 VSS.n2783 585
R750 VSS.n2783 VSS.n2782 585
R751 VSS.n3052 VSS.n3051 585
R752 VSS.n3053 VSS.n3052 585
R753 VSS.n2796 VSS.n2780 585
R754 VSS.n3054 VSS.n2780 585
R755 VSS.n3056 VSS.n2781 585
R756 VSS.n3056 VSS.n3055 585
R757 VSS.n3058 VSS.n3057 585
R758 VSS.n3057 VSS.n1739 585
R759 VSS.n3063 VSS.n3062 585
R760 VSS.n3063 VSS.n1740 585
R761 VSS.n3066 VSS.n3065 585
R762 VSS.n3065 VSS.n3064 585
R763 VSS.n3068 VSS.n2725 585
R764 VSS.n2725 VSS.n2724 585
R765 VSS.n3072 VSS.n3071 585
R766 VSS.n3073 VSS.n3072 585
R767 VSS.n2726 VSS.n2723 585
R768 VSS.n3074 VSS.n2723 585
R769 VSS.n3077 VSS.n3076 585
R770 VSS.n3076 VSS.n3075 585
R771 VSS.n2721 VSS.n2716 585
R772 VSS.n2716 VSS.n2715 585
R773 VSS.n3083 VSS.n3082 585