* NGSPICE file created from core_prel_parax.ext - technology: sky130A

.subckt core_prel_parax VDD Vbgr VSS
X0 VDD.t17 w_21453_n6696.t13 a_17750_n8805.t2 VDD.t16 sky130_fd_pr__pfet_01v8_lvt ad=1.45 pd=10.29 as=1.45 ps=10.29 w=10 l=0.5
X1 Gcm2 w_21453_n6696.t14 VDD.t15 VDD.t14 sky130_fd_pr__pfet_01v8_lvt ad=1.45 pd=10.29 as=1.45 ps=10.29 w=10 l=0.5
X2 a_17750_n8805.t3 XQ2[0|0].Emitter VSS.t79 sky130_fd_pr__res_xhigh_po_0p35 l=0.9
X3 VSS.t78 VSS.t75 VSS.t77 VSS.t76 sky130_fd_pr__nfet_01v8_lvt ad=0.58 pd=4.58 as=0 ps=0 w=2 l=0.5
X4 VSS.t1 a_23542_n10376# VSS.t0 sky130_fd_pr__res_xhigh_po_0p69 l=1.26
X5 VDD.t32 VDD.t30 w_21453_n6696.t0 VDD.t31 sky130_fd_pr__pfet_01v8_lvt ad=1.16 pd=8.58 as=0.58 ps=4.29 w=4 l=1
X6 MINUS.t2 w_21453_n6696.t15 VDD.t13 VDD.t12 sky130_fd_pr__pfet_01v8_lvt ad=1.45 pd=10.29 as=1.45 ps=10.29 w=10 l=0.5
X7 VSS.t38 VSS.t74 XQ2[0|0].Emitter sky130_fd_pr__pnp_05v5_W3p40L3p40
**devattr s=462400,2720
X8 VSS.t40 VSS.t73 XQ2[0|0].Emitter sky130_fd_pr__pnp_05v5_W3p40L3p40
**devattr s=462400,2720
X9 VSS.t44 VSS.t72 XQ2[0|0].Emitter sky130_fd_pr__pnp_05v5_W3p40L3p40
**devattr s=462400,2720
X10 w_21453_n6696.t5 VDD.t27 VDD.t29 VDD.t28 sky130_fd_pr__pfet_01v8_lvt ad=0.58 pd=4.29 as=1.16 ps=8.58 w=4 l=1
X11 w_21453_n6696.t3 a_17692_n8717.t8 VDD.t19 VDD.t18 sky130_fd_pr__pfet_01v8_lvt ad=0.58 pd=4.29 as=0.58 ps=4.29 w=4 l=1
X12 a_25081_n8277# a_25579_n8877# VSS.t8 sky130_fd_pr__res_xhigh_po_0p35 l=1
X13 Vbgr.t0 a_25414_n10376# VSS.t6 sky130_fd_pr__res_xhigh_po_0p69 l=1.26
X14 VSS.t38 VSS.t71 XQ2[0|0].Emitter sky130_fd_pr__pnp_05v5_W3p40L3p40
**devattr s=462400,2720
X15 VSS.t40 VSS.t70 XQ2[0|0].Emitter sky130_fd_pr__pnp_05v5_W3p40L3p40
**devattr s=462400,2720
X16 VSS.t40 VSS.t69 XQ2[0|0].Emitter sky130_fd_pr__pnp_05v5_W3p40L3p40
**devattr s=462400,2720
X17 VDD.t11 w_21453_n6696.t16 Vbgr.t2 VDD.t10 sky130_fd_pr__pfet_01v8_lvt ad=1.45 pd=10.29 as=1.45 ps=10.29 w=10 l=0.5
X18 VSS.t68 VSS.t66 a_17692_n8717.t1 VSS.t67 sky130_fd_pr__nfet_01v8_lvt ad=2.32 pd=16.58 as=1.16 ps=8.29 w=8 l=4
X19 VSS.t17 VSS.t18 VSS.t16 sky130_fd_pr__res_xhigh_po_0p35 l=1
X20 Gcm2 Gcm2 VSS.t25 VSS.t24 sky130_fd_pr__nfet_01v8_lvt ad=0.29 pd=2.29 as=0.29 ps=2.29 w=2 l=0.5
X21 VSS.t38 VSS.t60 XQ2[0|0].Emitter sky130_fd_pr__pnp_05v5_W3p40L3p40
**devattr s=462400,2720
X22 VSS.t42 VSS.t65 XQ2[0|0].Emitter sky130_fd_pr__pnp_05v5_W3p40L3p40
**devattr s=462400,2720
X23 VSS.t64 VSS.t62 Gcm2 VSS.t63 sky130_fd_pr__nfet_01v8_lvt ad=0.58 pd=4.58 as=0.29 ps=2.29 w=2 l=0.5
X24 VSS.t31 VSS.t59 XQ2[0|0].Emitter sky130_fd_pr__pnp_05v5_W3p40L3p40
**devattr s=462400,2720
X25 VSS.t31 VSS.t58 XQ2[0|0].Emitter sky130_fd_pr__pnp_05v5_W3p40L3p40
**devattr s=462400,2720
X26 VSS.t31 VSS.t61 MINUS.t3 sky130_fd_pr__pnp_05v5_W3p40L3p40
**devattr s=462400,2720
X27 a_25180_n9724# a_25414_n10376# VSS.t6 sky130_fd_pr__res_xhigh_po_0p69 l=1.26
X28 VSS.t15 a_23825_n8877# VSS.t14 sky130_fd_pr__res_xhigh_po_0p35 l=1
X29 VSS.t33 VSS.t57 XQ2[0|0].Emitter sky130_fd_pr__pnp_05v5_W3p40L3p40
**devattr s=462400,2720
X30 VSS.t42 VSS.t56 XQ2[0|0].Emitter sky130_fd_pr__pnp_05v5_W3p40L3p40
**devattr s=462400,2720
X31 a_24157_n8277# a_24323_n8877# VSS.t13 sky130_fd_pr__res_xhigh_po_0p35 l=1
X32 VSS.t4 VSS.t5 VSS.t3 sky130_fd_pr__res_xhigh_po_0p69 l=1.26
X33 VDD.t26 VDD.t24 VDD.t26 VDD.t25 sky130_fd_pr__pfet_01v8_lvt ad=1.45 pd=10.29 as=0 ps=0 w=10 l=0.5
X34 a_23991_n8277# a_24915_n8877# VSS.t8 sky130_fd_pr__res_xhigh_po_0p35 l=1
X35 VSS.t44 VSS.t55 XQ2[0|0].Emitter sky130_fd_pr__pnp_05v5_W3p40L3p40
**devattr s=462400,2720
X36 VSS.t42 VSS.t54 XQ2[0|0].Emitter sky130_fd_pr__pnp_05v5_W3p40L3p40
**devattr s=462400,2720
X37 VSS.t42 VSS.t53 XQ2[0|0].Emitter sky130_fd_pr__pnp_05v5_W3p40L3p40
**devattr s=462400,2720
X38 VDD.t9 w_21453_n6696.t17 Gcm2 VDD.t8 sky130_fd_pr__pfet_01v8_lvt ad=1.45 pd=10.29 as=1.45 ps=10.29 w=10 l=0.5
X39 VDD.t7 w_21453_n6696.t18 MINUS.t1 VDD.t6 sky130_fd_pr__pfet_01v8_lvt ad=1.45 pd=10.29 as=1.45 ps=10.29 w=10 l=0.5
X40 w_21453_n6696.t4 MINUS.t4 Sop.t5 VSS.t29 sky130_fd_pr__nfet_01v8_lvt ad=1.16 pd=8.29 as=1.16 ps=8.29 w=8 l=4
X41 a_25247_n8277# MINUS.t0 VSS.t8 sky130_fd_pr__res_xhigh_po_0p35 l=1
X42 a_24712_n9724# a_24946_n10376# VSS.t6 sky130_fd_pr__res_xhigh_po_0p69 l=1.26
X43 VSS.t33 VSS.t52 XQ2[0|0].Emitter sky130_fd_pr__pnp_05v5_W3p40L3p40
**devattr s=462400,2720
X44 VSS.t33 VSS.t51 XQ2[0|0].Emitter sky130_fd_pr__pnp_05v5_W3p40L3p40
**devattr s=462400,2720
X45 VSS.t33 VSS.t50 XQ2[0|0].Emitter sky130_fd_pr__pnp_05v5_W3p40L3p40
**devattr s=462400,2720
X46 w_21453_n6696.t7 Vbgr.t3 VSS.t80 w_21453_n6696.t6 sky130_fd_pr__pfet_01v8_lvt ad=0.29 pd=2.58 as=0.29 ps=2.58 w=1 l=10
X47 a_23493_n8277# VSS.t88 VSS.t87 sky130_fd_pr__res_xhigh_po_0p35 l=1
X48 a_23493_n8277# a_23659_n8877# VSS.t11 sky130_fd_pr__res_xhigh_po_0p35 l=1
X49 VSS.t40 VSS.t49 XQ2[0|0].Emitter sky130_fd_pr__pnp_05v5_W3p40L3p40
**devattr s=462400,2720
X50 VSS.t44 VSS.t48 XQ2[0|0].Emitter sky130_fd_pr__pnp_05v5_W3p40L3p40
**devattr s=462400,2720
X51 w_21453_n6696.t2 Vbgr.t4 VSS.t19 w_21453_n6696.t1 sky130_fd_pr__pfet_01v8_lvt ad=0.29 pd=2.58 as=0.29 ps=2.58 w=1 l=10
X52 Sop.t3 a_17750_n8805.t4 a_17692_n8717.t6 VSS.t83 sky130_fd_pr__nfet_01v8_lvt ad=1.16 pd=8.29 as=1.16 ps=8.29 w=8 l=4
X53 a_24157_n8277# a_23659_n8877# VSS.t89 sky130_fd_pr__res_xhigh_po_0p35 l=1
X54 VSS.t9 VSS.t10 VSS.t8 sky130_fd_pr__res_xhigh_po_0p35 l=1
X55 a_24244_n9724# a_24478_n10376# VSS.t7 sky130_fd_pr__res_xhigh_po_0p69 l=1.26
X56 a_24712_n9724# a_24478_n10376# VSS.t6 sky130_fd_pr__res_xhigh_po_0p69 l=1.26
X57 VSS.t38 VSS.t47 XQ2[0|0].Emitter sky130_fd_pr__pnp_05v5_W3p40L3p40
**devattr s=462400,2720
X58 w_21453_n6696.t10 Vbgr.t5 VSS.t84 w_21453_n6696.t9 sky130_fd_pr__pfet_01v8_lvt ad=0.29 pd=2.58 as=0.29 ps=2.58 w=1 l=10
X59 a_17750_n8805.t1 w_21453_n6696.t19 VDD.t5 VDD.t4 sky130_fd_pr__pfet_01v8_lvt ad=1.45 pd=10.29 as=1.45 ps=10.29 w=10 l=0.5
X60 VSS.t31 VSS.t46 XQ2[0|0].Emitter sky130_fd_pr__pnp_05v5_W3p40L3p40
**devattr s=462400,2720
X61 VDD.t36 a_17692_n8717.t9 w_21453_n6696.t8 VDD.t35 sky130_fd_pr__pfet_01v8_lvt ad=0.58 pd=4.29 as=0.58 ps=4.29 w=4 l=1
X62 VDD.t23 VDD.t20 VDD.t22 VDD.t21 sky130_fd_pr__pfet_01v8_lvt ad=2.9 pd=20.58 as=0 ps=0 w=10 l=0.5
X63 a_23991_n8277# a_23825_n8877# VSS.t28 sky130_fd_pr__res_xhigh_po_0p35 l=1
X64 a_25081_n8277# a_24915_n8877# VSS.t8 sky130_fd_pr__res_xhigh_po_0p35 l=1
X65 a_25247_n8277# a_24323_n8877# VSS.t8 sky130_fd_pr__res_xhigh_po_0p35 l=1
X66 Sop.t1 Gcm2 VSS.t23 VSS.t22 sky130_fd_pr__nfet_01v8_lvt ad=0.29 pd=2.29 as=0.29 ps=2.29 w=2 l=0.5
X67 a_24244_n9724# a_24010_n10376# VSS.t2 sky130_fd_pr__res_xhigh_po_0p69 l=1.26
X68 VSS.t44 VSS.t45 XQ2[0|0].Emitter sky130_fd_pr__pnp_05v5_W3p40L3p40
**devattr s=462400,2720
X69 VSS.t44 VSS.t43 XQ2[0|0].Emitter sky130_fd_pr__pnp_05v5_W3p40L3p40
**devattr s=462400,2720
X70 w_21453_n6696.t12 Vbgr.t6 VSS.t86 w_21453_n6696.t11 sky130_fd_pr__pfet_01v8_lvt ad=0.29 pd=2.58 as=0.29 ps=2.58 w=1 l=10
X71 VSS.t21 Gcm2 Sop.t0 VSS.t20 sky130_fd_pr__nfet_01v8_lvt ad=0.29 pd=2.29 as=0.29 ps=2.29 w=2 l=0.5
X72 Sop.t4 MINUS.t5 w_21453_n6696.t4 VSS.t85 sky130_fd_pr__nfet_01v8_lvt ad=1.16 pd=8.29 as=1.16 ps=8.29 w=8 l=4
X73 VSS.t26 VSS.t27 VSS.t6 sky130_fd_pr__res_xhigh_po_0p69 l=1.26
X74 a_23776_n9724# a_24010_n10376# VSS.t12 sky130_fd_pr__res_xhigh_po_0p69 l=1.26
X75 VSS.t42 VSS.t41 XQ2[0|0].Emitter sky130_fd_pr__pnp_05v5_W3p40L3p40
**devattr s=462400,2720
X76 VDD.t34 a_17692_n8717.t4 a_17692_n8717.t5 VDD.t33 sky130_fd_pr__pfet_01v8_lvt ad=0.58 pd=4.29 as=0.58 ps=4.29 w=4 l=1
X77 a_17692_n8717.t7 a_17750_n8805.t5 Sop.t2 VSS.t82 sky130_fd_pr__nfet_01v8_lvt ad=1.16 pd=8.29 as=1.16 ps=8.29 w=8 l=4
X78 a_17750_n8805.t0 a_25579_n8877# VSS.t8 sky130_fd_pr__res_xhigh_po_0p35 l=1
X79 a_17692_n8717.t3 a_17692_n8717.t2 VDD.t1 VDD.t0 sky130_fd_pr__pfet_01v8_lvt ad=0.58 pd=4.29 as=0.58 ps=4.29 w=4 l=1
X80 Vbgr.t1 w_21453_n6696.t20 VDD.t3 VDD.t2 sky130_fd_pr__pfet_01v8_lvt ad=1.45 pd=10.29 as=1.45 ps=10.29 w=10 l=0.5
X81 VSS.t40 VSS.t39 XQ2[0|0].Emitter sky130_fd_pr__pnp_05v5_W3p40L3p40
**devattr s=462400,2720
X82 VSS.t38 VSS.t37 XQ2[0|0].Emitter sky130_fd_pr__pnp_05v5_W3p40L3p40
**devattr s=462400,2720
X83 a_17692_n8717.t0 VSS.t34 VSS.t36 VSS.t35 sky130_fd_pr__nfet_01v8_lvt ad=1.16 pd=8.29 as=2.32 ps=16.58 w=8 l=4
X84 a_23776_n9724# a_23542_n10376# VSS.t81 sky130_fd_pr__res_xhigh_po_0p69 l=1.26
X85 VSS.t33 VSS.t32 XQ2[0|0].Emitter sky130_fd_pr__pnp_05v5_W3p40L3p40
**devattr s=462400,2720
X86 VSS.t31 VSS.t30 XQ2[0|0].Emitter sky130_fd_pr__pnp_05v5_W3p40L3p40
**devattr s=462400,2720
X87 a_25180_n9724# a_24946_n10376# VSS.t6 sky130_fd_pr__res_xhigh_po_0p69 l=1.26
R0 w_21453_n6696.n0 w_21453_n6696.t16 674.212
R1 w_21453_n6696.n0 w_21453_n6696.t14 674.149
R2 w_21453_n6696.n0 w_21453_n6696.t17 674.149
R3 w_21453_n6696.n0 w_21453_n6696.t19 674.149
R4 w_21453_n6696.n0 w_21453_n6696.t13 674.149
R5 w_21453_n6696.n0 w_21453_n6696.t15 674.149
R6 w_21453_n6696.n0 w_21453_n6696.t18 674.149
R7 w_21453_n6696.n0 w_21453_n6696.t20 674.149
R8 w_21453_n6696.n0 w_21453_n6696.t2 228.215
R9 w_21453_n6696.n0 w_21453_n6696.t7 228.215
R10 w_21453_n6696.n0 w_21453_n6696.t12 228.215
R11 w_21453_n6696.n0 w_21453_n6696.t10 228.215
R12 w_21453_n6696.n1 w_21453_n6696.t4 210.763
R13 w_21453_n6696.t6 w_21453_n6696.t1 173.161
R14 w_21453_n6696.t11 w_21453_n6696.t9 173.161
R15 w_21453_n6696.n1 w_21453_n6696.n2 153.768
R16 w_21453_n6696.n4 w_21453_n6696.n1 152.613
R17 w_21453_n6696.n3 w_21453_n6696.t6 86.5808
R18 w_21453_n6696.n3 w_21453_n6696.t11 86.5808
R19 w_21453_n6696.n0 w_21453_n6696.n3 17.8715
R20 w_21453_n6696.n1 w_21453_n6696.n0 9.42554
R21 w_21453_n6696.n2 w_21453_n6696.t8 7.14175
R22 w_21453_n6696.n2 w_21453_n6696.t5 7.14175
R23 w_21453_n6696.t0 w_21453_n6696.n4 7.14175
R24 w_21453_n6696.n4 w_21453_n6696.t3 7.14175
R25 a_17750_n8805.n2 a_17750_n8805.n0 276.264
R26 a_17750_n8805.n1 a_17750_n8805.t4 68.6435
R27 a_17750_n8805.n1 a_17750_n8805.t5 66.1962
R28 a_17750_n8805.n3 a_17750_n8805.t3 53.4029
R29 a_17750_n8805.t0 a_17750_n8805.n3 43.7745
R30 a_17750_n8805.n2 a_17750_n8805.n1 16.4639
R31 a_17750_n8805.n0 a_17750_n8805.t2 2.857
R32 a_17750_n8805.n0 a_17750_n8805.t1 2.857
R33 a_17750_n8805.n3 a_17750_n8805.n2 0.394995
R34 VDD.n11 VDD.t24 675.381
R35 VDD.n22 VDD.t20 674.89
R36 VDD.n24 VDD.t23 278.337
R37 VDD.t26 VDD.n10 278.334
R38 VDD.n21 VDD.n20 275.077
R39 VDD.n19 VDD.n18 275.077
R40 VDD.n17 VDD.n16 275.077
R41 VDD.n15 VDD.n14 275.077
R42 VDD.n13 VDD.n12 275.077
R43 VDD.t28 VDD.n33 271.897
R44 VDD.n8 VDD.t31 257.913
R45 VDD.n6 VDD.t30 192.475
R46 VDD.n1 VDD.t27 192.475
R47 VDD.n27 VDD.n26 162.465
R48 VDD.n7 VDD.t32 159.048
R49 VDD.n0 VDD.t29 159.048
R50 VDD.t31 VDD.t18 152.52
R51 VDD.t18 VDD.t33 152.52
R52 VDD.t0 VDD.t35 152.52
R53 VDD.t35 VDD.t28 152.52
R54 VDD.n25 VDD.n23 152.345
R55 VDD.n3 VDD.n2 151.905
R56 VDD.n5 VDD.n4 151.905
R57 VDD.t21 VDD.n25 143.857
R58 VDD.n26 VDD.t25 140.78
R59 VDD.n26 VDD.n10 118.692
R60 VDD.n25 VDD.n24 116.584
R61 VDD VDD.t33 98.1337
R62 VDD.t25 VDD.t10 69.427
R63 VDD.t10 VDD.t2 69.427
R64 VDD.t2 VDD.t6 69.427
R65 VDD.t6 VDD.t12 69.427
R66 VDD.t12 VDD.t16 69.427
R67 VDD.t16 VDD.t4 69.427
R68 VDD.t4 VDD.t8 69.427
R69 VDD.t8 VDD.t14 69.427
R70 VDD.t14 VDD.t21 69.427
R71 VDD VDD.t0 54.3876
R72 VDD.n2 VDD.t1 7.14175
R73 VDD.n2 VDD.t36 7.14175
R74 VDD.n4 VDD.t19 7.14175
R75 VDD.n4 VDD.t34 7.14175
R76 VDD.n20 VDD.t15 2.857
R77 VDD.n20 VDD.t22 2.857
R78 VDD.n18 VDD.t5 2.857
R79 VDD.n18 VDD.t9 2.857
R80 VDD.n16 VDD.t13 2.857
R81 VDD.n16 VDD.t17 2.857
R82 VDD.n14 VDD.t3 2.857
R83 VDD.n14 VDD.t7 2.857
R84 VDD.n12 VDD.t26 2.857
R85 VDD.n12 VDD.t11 2.857
R86 VDD.n23 VDD.n9 2.26217
R87 VDD.n28 VDD.n27 2.26217
R88 VDD.n33 VDD.n32 2.20468
R89 VDD.n28 VDD.n10 2.09911
R90 VDD.n24 VDD.n9 1.99684
R91 VDD.n32 VDD.n8 1.2782
R92 VDD.n30 VDD.n29 0.975785
R93 VDD.n29 VDD.n28 0.723704
R94 VDD.n5 VDD.n3 0.233352
R95 VDD.n29 VDD.n9 0.218658
R96 VDD.n3 VDD.n1 0.164385
R97 VDD.n6 VDD.n5 0.164385
R98 VDD.n22 VDD.n21 0.143692
R99 VDD.n13 VDD.n11 0.1405
R100 VDD.n15 VDD.n13 0.122038
R101 VDD.n17 VDD.n15 0.122038
R102 VDD.n19 VDD.n17 0.122038
R103 VDD.n21 VDD.n19 0.122038
R104 VDD.n33 VDD.n0 0.0940792
R105 VDD.n8 VDD.n7 0.086224
R106 VDD.n1 VDD.n0 0.0445574
R107 VDD.n7 VDD.n6 0.0445574
R108 VDD.n30 VDD 0.0299078
R109 VDD VDD.n31 0.024
R110 VDD.n31 VDD 0.023873
R111 VDD.n32 VDD 0.0176141
R112 VDD.n31 VDD.n30 0.00558108
R113 VDD.n23 VDD.n22 0.00176918
R114 VDD.n27 VDD.n11 0.00165385
R115 VSS.n1874 VSS.n1870 20051.4
R116 VSS.n1891 VSS.n1870 16174.6
R117 VSS.n4639 VSS.n1393 12208.2
R118 VSS.n1899 VSS.n1870 9706.76
R119 VSS.n4625 VSS.n1402 7289
R120 VSS.n4626 VSS.n1402 7289
R121 VSS.n4663 VSS.n1369 7289
R122 VSS.n4658 VSS.n1369 7289
R123 VSS.n1378 VSS.n1370 6993.5
R124 VSS.n4620 VSS.n1401 6993.5
R125 VSS.n4153 VSS.n1899 4974.74
R126 VSS.n4626 VSS.n1401 3743
R127 VSS.n4658 VSS.n1378 3743
R128 VSS.n4625 VSS.n4620 3644.5
R129 VSS.n4663 VSS.n1370 3644.5
R130 VSS.n4154 VSS.n4153 3409.8
R131 VSS.n4155 VSS.t38 2890.74
R132 VSS.n4182 VSS.n4180 2277.04
R133 VSS.n4072 VSS.n4071 1851.56
R134 VSS.n4729 VSS.n4728 1851.56
R135 VSS.n4708 VSS.n4707 1851.56
R136 VSS.n1684 VSS.n1683 1801.72
R137 VSS.n4986 VSS.n4985 1801.72
R138 VSS.n675 VSS.n674 1801.72
R139 VSS.n2625 VSS.n2589 1634.59
R140 VSS.n2789 VSS.n2788 1559.06
R141 VSS.n2788 VSS.n2787 1559.06
R142 VSS.n2787 VSS.n2761 1559.06
R143 VSS.n2781 VSS.n2761 1559.06
R144 VSS.n2781 VSS.n2780 1559.06
R145 VSS.n2777 VSS.n2776 1559.06
R146 VSS.n2776 VSS.n2775 1559.06
R147 VSS.n2775 VSS.n2766 1559.06
R148 VSS.n2768 VSS.n2766 1559.06
R149 VSS.n2768 VSS.n2767 1559.06
R150 VSS.n4071 VSS.n4070 1559.06
R151 VSS.n4070 VSS.n4001 1559.06
R152 VSS.n4064 VSS.n4001 1559.06
R153 VSS.n4064 VSS.n1172 1559.06
R154 VSS.n4007 VSS.n1173 1559.06
R155 VSS.n4057 VSS.n4007 1559.06
R156 VSS.n4057 VSS.n4056 1559.06
R157 VSS.n4056 VSS.n4055 1559.06
R158 VSS.n4055 VSS.n1174 1559.06
R159 VSS.n4728 VSS.n4727 1559.06
R160 VSS.n4727 VSS.n1167 1559.06
R161 VSS.n1171 VSS.n1167 1559.06
R162 VSS.n4720 VSS.n1171 1559.06
R163 VSS.n3907 VSS.n1175 1559.06
R164 VSS.n3913 VSS.n3907 1559.06
R165 VSS.n3914 VSS.n3913 1559.06
R166 VSS.n3915 VSS.n3914 1559.06
R167 VSS.n3915 VSS.n1176 1559.06
R168 VSS.n1683 VSS.n1655 1559.06
R169 VSS.n1677 VSS.n1655 1559.06
R170 VSS.n1677 VSS.n1676 1559.06
R171 VSS.n1673 VSS.n1672 1559.06
R172 VSS.n1672 VSS.n1671 1559.06
R173 VSS.n1671 VSS.n1660 1559.06
R174 VSS.n1665 VSS.n1660 1559.06
R175 VSS.n1665 VSS.n1664 1559.06
R176 VSS.n4985 VSS.n766 1559.06
R177 VSS.n4979 VSS.n766 1559.06
R178 VSS.n4979 VSS.n4978 1559.06
R179 VSS.n4975 VSS.n4974 1559.06
R180 VSS.n4974 VSS.n4973 1559.06
R181 VSS.n4973 VSS.n771 1559.06
R182 VSS.n4967 VSS.n771 1559.06
R183 VSS.n4967 VSS.n4966 1559.06
R184 VSS.n674 VSS.n646 1559.06
R185 VSS.n668 VSS.n646 1559.06
R186 VSS.n668 VSS.n667 1559.06
R187 VSS.n664 VSS.n663 1559.06
R188 VSS.n663 VSS.n662 1559.06
R189 VSS.n662 VSS.n651 1559.06
R190 VSS.n656 VSS.n651 1559.06
R191 VSS.n656 VSS.n655 1559.06
R192 VSS.n4707 VSS.n4706 1559.06
R193 VSS.n4706 VSS.n1210 1559.06
R194 VSS.n1211 VSS.n1210 1559.06
R195 VSS.n1211 VSS.n1177 1559.06
R196 VSS.n4697 VSS.n1178 1559.06
R197 VSS.n4697 VSS.n4696 1559.06
R198 VSS.n4696 VSS.n4695 1559.06
R199 VSS.n4695 VSS.n1216 1559.06
R200 VSS.n1216 VSS.n1179 1559.06
R201 VSS.n4163 VSS.n1866 1540.86
R202 VSS.n4164 VSS.n4163 1540.86
R203 VSS.n4165 VSS.n4164 1540.86
R204 VSS.n4172 VSS.n1862 1540.86
R205 VSS.n4173 VSS.n4172 1540.86
R206 VSS.n4174 VSS.n4173 1540.86
R207 VSS.n4174 VSS.n1859 1540.86
R208 VSS.n4178 VSS.n1859 1540.86
R209 VSS.n4179 VSS.n4178 1540.86
R210 VSS.n4183 VSS.n4182 1540.86
R211 VSS.n4208 VSS.n4183 1540.86
R212 VSS.n4208 VSS.n4207 1540.86
R213 VSS.n4207 VSS.n4206 1540.86
R214 VSS.n4206 VSS.n1183 1540.86
R215 VSS.n4199 VSS.n1184 1540.86
R216 VSS.n4199 VSS.n4198 1540.86
R217 VSS.n4198 VSS.n4197 1540.86
R218 VSS.n4197 VSS.n4187 1540.86
R219 VSS.n4191 VSS.n4187 1540.86
R220 VSS.n5370 VSS.n165 1497.55
R221 VSS.n4637 VSS.n4634 1332.39
R222 VSS.n1397 VSS.n1394 1311.29
R223 VSS.n4180 VSS.n4179 1284.05
R224 VSS.t33 VSS.n1185 1103.21
R225 VSS.n2780 VSS.t38 1056.69
R226 VSS.t33 VSS.n1172 1056.69
R227 VSS.n4720 VSS.t33 1056.69
R228 VSS.n1676 VSS.t44 1056.69
R229 VSS.n4978 VSS.t44 1056.69
R230 VSS.n667 VSS.t44 1056.69
R231 VSS.t33 VSS.n1177 1056.69
R232 VSS.n4165 VSS.t38 1044.36
R233 VSS.t33 VSS.n1183 1044.36
R234 VSS.n5564 VSS.n5563 888.997
R235 VSS.n4618 VSS.n1378 857.529
R236 VSS.n4618 VSS.n1401 857.529
R237 VSS.n4180 VSS.n1857 855.557
R238 VSS.n2569 VSS.n1265 855.557
R239 VSS.n2545 VSS.n2389 855.557
R240 VSS.n4641 VSS.n1390 855.557
R241 VSS.n2286 VSS.n20 855.557
R242 VSS.n4619 VSS.n1370 840.148
R243 VSS.n4620 VSS.n4619 840.148
R244 VSS.n1898 VSS.n1897 829.587
R245 VSS.n1898 VSS.n1 827.635
R246 VSS.n5565 VSS.n5564 770.559
R247 VSS.n5566 VSS.n1 760.035
R248 VSS.n4153 VSS.n4152 728.679
R249 VSS.n1871 VSS.n2 723.712
R250 VSS.n4156 VSS.n4154 718.693
R251 VSS.n2756 VSS.n2034 665.731
R252 VSS.n3062 VSS.t38 665.731
R253 VSS.n3148 VSS.t38 665.731
R254 VSS.n3222 VSS.t38 665.731
R255 VSS.n2767 VSS.t38 658.269
R256 VSS.t33 VSS.n1174 658.269
R257 VSS.t33 VSS.n1176 658.269
R258 VSS.n1664 VSS.t44 658.269
R259 VSS.n4966 VSS.t44 658.269
R260 VSS.n655 VSS.t44 658.269
R261 VSS.t33 VSS.n1179 658.269
R262 VSS.n2794 VSS.n2034 648.096
R263 VSS.n3114 VSS.t38 648.096
R264 VSS.n3186 VSS.t38 648.096
R265 VSS.n4078 VSS.t38 648.096
R266 VSS.n2357 VSS.n2322 641.164
R267 VSS.t35 VSS.t83 627.736
R268 VSS.n4191 VSS.n1185 616.342
R269 VSS.t82 VSS.t67 611.785
R270 VSS.n5224 VSS.n334 585
R271 VSS.n5224 VSS.n5223 585
R272 VSS.n358 VSS.n342 585
R273 VSS.n5218 VSS.n358 585
R274 VSS.n5216 VSS.n5215 585
R275 VSS.n4963 VSS.n4962 585
R276 VSS.n4403 VSS.n326 585
R277 VSS.n5234 VSS.n326 585
R278 VSS.n4403 VSS.n327 585
R279 VSS.n5234 VSS.n327 585
R280 VSS.n4992 VSS.n325 585
R281 VSS.n5234 VSS.n325 585
R282 VSS.n4992 VSS.n328 585
R283 VSS.n5234 VSS.n328 585
R284 VSS.n5232 VSS.n324 585
R285 VSS.n5234 VSS.n324 585
R286 VSS.n5233 VSS.n5232 585
R287 VSS.n5234 VSS.n5233 585
R288 VSS.n2363 VSS.n209 585
R289 VSS.n5231 VSS.n329 585
R290 VSS.n5231 VSS.n5230 585
R291 VSS.n4991 VSS.n760 585
R292 VSS.n4991 VSS.n4990 585
R293 VSS.n4402 VSS.n1584 585
R294 VSS.n4402 VSS.n4401 585
R295 VSS.n4401 VSS.n209 585
R296 VSS.n4401 VSS.n1687 585
R297 VSS.n1687 VSS.n1584 585
R298 VSS.n1584 VSS.n211 585
R299 VSS.n4990 VSS.n4989 585
R300 VSS.n4990 VSS.n211 585
R301 VSS.n4989 VSS.n760 585
R302 VSS.n760 VSS.n211 585
R303 VSS.n5230 VSS.n5229 585
R304 VSS.n5230 VSS.n211 585
R305 VSS.n5229 VSS.n329 585
R306 VSS.n329 VSS.n211 585
R307 VSS.n5437 VSS.n74 585
R308 VSS.n5437 VSS.n5436 585
R309 VSS.n74 VSS.n72 585
R310 VSS.n5436 VSS.n72 585
R311 VSS.n3476 VSS.n77 585
R312 VSS.n5436 VSS.n77 585
R313 VSS.n3476 VSS.n78 585
R314 VSS.n5436 VSS.n78 585
R315 VSS.n359 VSS.n76 585
R316 VSS.n5436 VSS.n76 585
R317 VSS.n359 VSS.n79 585
R318 VSS.n5436 VSS.n79 585
R319 VSS.n2284 VSS.n23 585
R320 VSS.n965 VSS.n846 585
R321 VSS.n967 VSS.n846 585
R322 VSS.n3681 VSS.n3477 585
R323 VSS.n3679 VSS.n3477 585
R324 VSS.n3540 VSS.n1451 585
R325 VSS.n1451 VSS.n73 585
R326 VSS.n73 VSS.n23 585
R327 VSS.n73 VSS.n70 585
R328 VSS.n3540 VSS.n70 585
R329 VSS.n3540 VSS.n25 585
R330 VSS.n3680 VSS.n3679 585
R331 VSS.n3679 VSS.n25 585
R332 VSS.n3681 VSS.n3680 585
R333 VSS.n3681 VSS.n25 585
R334 VSS.n967 VSS.n966 585
R335 VSS.n967 VSS.n25 585
R336 VSS.n966 VSS.n965 585
R337 VSS.n965 VSS.n25 585
R338 VSS.n5434 VSS.n75 585
R339 VSS.n5436 VSS.n75 585
R340 VSS.n5435 VSS.n5434 585
R341 VSS.n5436 VSS.n5435 585
R342 VSS.n5433 VSS.n80 585
R343 VSS.n80 VSS.n23 585
R344 VSS.n5433 VSS.n5432 585
R345 VSS.n5432 VSS.n5431 585
R346 VSS.n5432 VSS.n25 585
R347 VSS.n5431 VSS.n80 585
R348 VSS.n5429 VSS.n5428 585
R349 VSS.n5236 VSS.n320 585
R350 VSS.n5234 VSS.n320 585
R351 VSS.n5236 VSS.n5235 585
R352 VSS.n5235 VSS.n5234 585
R353 VSS.n322 VSS.n321 585
R354 VSS.n322 VSS.n209 585
R355 VSS.n643 VSS.n321 585
R356 VSS.n678 VSS.n643 585
R357 VSS.n643 VSS.n211 585
R358 VSS.n678 VSS.n322 585
R359 VSS.n5251 VSS.n303 585
R360 VSS.n5007 VSS.n743 585
R361 VSS.n4418 VSS.n1567 585
R362 VSS.n1227 VSS.n1220 585
R363 VSS.n4719 VSS.n1192 585
R364 VSS.n1338 VSS.n1306 585
R365 VSS.n5044 VSS.n5014 585
R366 VSS.n4048 VSS.n4047 585
R367 VSS.n3903 VSS.n3870 585
R368 VSS.n4051 VSS.n4009 585
R369 VSS.n4009 VSS.n1182 585
R370 VSS.n4051 VSS.n4050 585
R371 VSS.n4050 VSS.n1182 585
R372 VSS.n3920 VSS.n3919 585
R373 VSS.n3919 VSS.n1182 585
R374 VSS.n3921 VSS.n3920 585
R375 VSS.n3921 VSS.n1182 585
R376 VSS.n1304 VSS.n1303 585
R377 VSS.n1304 VSS.n1182 585
R378 VSS.n1303 VSS.n1276 585
R379 VSS.n1276 VSS.n1182 585
R380 VSS.n4688 VSS.n1219 585
R381 VSS.n4688 VSS.n1182 585
R382 VSS.n1221 VSS.n1219 585
R383 VSS.n1221 VSS.n1182 585
R384 VSS.n2708 VSS.n2239 585
R385 VSS.n4685 VSS.n1223 585
R386 VSS.n4687 VSS.n1223 585
R387 VSS.n1341 VSS.n1275 585
R388 VSS.n1277 VSS.n1275 585
R389 VSS.n3922 VSS.n3867 585
R390 VSS.n3868 VSS.n3867 585
R391 VSS.n4011 VSS.n4010 585
R392 VSS.n4013 VSS.n4010 585
R393 VSS.n4681 VSS.n1357 585
R394 VSS.n4681 VSS.n4680 585
R395 VSS.n4681 VSS.n1060 585
R396 VSS.n4014 VSS.n4013 585
R397 VSS.n4013 VSS.n1060 585
R398 VSS.n4014 VSS.n4011 585
R399 VSS.n4011 VSS.n1060 585
R400 VSS.n3923 VSS.n3868 585
R401 VSS.n3868 VSS.n1060 585
R402 VSS.n3923 VSS.n3922 585
R403 VSS.n3922 VSS.n1060 585
R404 VSS.n1340 VSS.n1277 585
R405 VSS.n1277 VSS.n1060 585
R406 VSS.n1341 VSS.n1340 585
R407 VSS.n1341 VSS.n1060 585
R408 VSS.n4687 VSS.n4686 585
R409 VSS.n4687 VSS.n1060 585
R410 VSS.n4686 VSS.n4685 585
R411 VSS.n4685 VSS.n1060 585
R412 VSS.n2709 VSS.n2708 585
R413 VSS.n2708 VSS.n1060 585
R414 VSS.n2791 VSS.n2037 585
R415 VSS.n2791 VSS.n2790 585
R416 VSS.n3065 VSS.n1994 585
R417 VSS.n3098 VSS.n1994 585
R418 VSS.n3097 VSS.n3065 585
R419 VSS.n3098 VSS.n3097 585
R420 VSS.n3097 VSS.n3096 585
R421 VSS.n3151 VSS.n1960 585
R422 VSS.n3183 VSS.n1960 585
R423 VSS.n3182 VSS.n3151 585
R424 VSS.n3183 VSS.n3182 585
R425 VSS.n3182 VSS.n3181 585
R426 VSS.n1915 VSS.n1913 585
R427 VSS.n1915 VSS.n1911 585
R428 VSS.n4076 VSS.n1913 585
R429 VSS.n4076 VSS.n1911 585
R430 VSS.n4076 VSS.n4075 585
R431 VSS.n4711 VSS.n1205 585
R432 VSS.n4709 VSS.n1205 585
R433 VSS.n4715 VSS.n1195 585
R434 VSS.n1195 VSS.n1129 585
R435 VSS.n3096 VSS.n1195 585
R436 VSS.n4732 VSS.n1160 585
R437 VSS.n4730 VSS.n1160 585
R438 VSS.n3181 VSS.n1160 585
R439 VSS.n4074 VSS.n3972 585
R440 VSS.n4074 VSS.n4073 585
R441 VSS.n4075 VSS.n4074 585
R442 VSS.n4073 VSS.n1199 585
R443 VSS.n4713 VSS.n1199 585
R444 VSS.n3972 VSS.n1200 585
R445 VSS.n4713 VSS.n1200 585
R446 VSS.n4730 VSS.n1165 585
R447 VSS.n4713 VSS.n1165 585
R448 VSS.n4732 VSS.n1158 585
R449 VSS.n4713 VSS.n1158 585
R450 VSS.n1130 VSS.n1129 585
R451 VSS.n4713 VSS.n1130 585
R452 VSS.n4715 VSS.n4714 585
R453 VSS.n4714 VSS.n4713 585
R454 VSS.n4709 VSS.n1198 585
R455 VSS.n4713 VSS.n1198 585
R456 VSS.n4712 VSS.n4711 585
R457 VSS.n4713 VSS.n4712 585
R458 VSS.n2681 VSS.n1131 585
R459 VSS.n1201 VSS.n1131 585
R460 VSS.n2844 VSS.n1131 585
R461 VSS.n1197 VSS.n1131 585
R462 VSS.n4766 VSS.n1131 585
R463 VSS.n4734 VSS.n1131 585
R464 VSS.n3267 VSS.n1131 585
R465 VSS.n3970 VSS.n1131 585
R466 VSS.n1836 VSS.n1131 585
R467 VSS.n4214 VSS.n1131 585
R468 VSS.n4709 VSS.n1208 585
R469 VSS.n4709 VSS.n4708 585
R470 VSS.n4716 VSS.n4715 585
R471 VSS.n4716 VSS.n1129 585
R472 VSS.n4718 VSS.n4715 585
R473 VSS.n4718 VSS.n1129 585
R474 VSS.n4719 VSS.n4718 585
R475 VSS.n4730 VSS.n1163 585
R476 VSS.n4730 VSS.n4729 585
R477 VSS.n4073 VSS.n3999 585
R478 VSS.n4073 VSS.n4072 585
R479 VSS.n5253 VSS.n298 585
R480 VSS.n302 VSS.n298 585
R481 VSS.n1227 VSS.n298 585
R482 VSS.n5046 VSS.n726 585
R483 VSS.n1306 VSS.n726 585
R484 VSS.n5013 VSS.n726 585
R485 VSS.n5009 VSS.n739 585
R486 VSS.n3870 VSS.n739 585
R487 VSS.n742 VSS.n739 585
R488 VSS.n4420 VSS.n1562 585
R489 VSS.n1566 VSS.n1562 585
R490 VSS.n4047 VSS.n1562 585
R491 VSS.n1566 VSS.n733 585
R492 VSS.n5011 VSS.n733 585
R493 VSS.n4420 VSS.n734 585
R494 VSS.n5011 VSS.n734 585
R495 VSS.n742 VSS.n732 585
R496 VSS.n5011 VSS.n732 585
R497 VSS.n5010 VSS.n5009 585
R498 VSS.n5011 VSS.n5010 585
R499 VSS.n5013 VSS.n5012 585
R500 VSS.n5012 VSS.n5011 585
R501 VSS.n5046 VSS.n724 585
R502 VSS.n5011 VSS.n724 585
R503 VSS.n698 VSS.n302 585
R504 VSS.n5011 VSS.n698 585
R505 VSS.n5253 VSS.n296 585
R506 VSS.n5011 VSS.n296 585
R507 VSS.n5287 VSS.n269 585
R508 VSS.n5255 VSS.n269 585
R509 VSS.n5080 VSS.n269 585
R510 VSS.n5048 VSS.n269 585
R511 VSS.n731 VSS.n269 585
R512 VSS.n735 VSS.n269 585
R513 VSS.n4454 VSS.n269 585
R514 VSS.n4422 VSS.n269 585
R515 VSS.n4319 VSS.n269 585
R516 VSS.n2514 VSS.n269 585
R517 VSS.n5253 VSS.n297 585
R518 VSS.n302 VSS.n297 585
R519 VSS.n5253 VSS.n5252 585
R520 VSS.n5252 VSS.n302 585
R521 VSS.n5252 VSS.n5251 585
R522 VSS.n5046 VSS.n725 585
R523 VSS.n5013 VSS.n725 585
R524 VSS.n5046 VSS.n5045 585
R525 VSS.n5045 VSS.n5013 585
R526 VSS.n5045 VSS.n5044 585
R527 VSS.n5009 VSS.n738 585
R528 VSS.n742 VSS.n738 585
R529 VSS.n5009 VSS.n5008 585
R530 VSS.n5008 VSS.n742 585
R531 VSS.n5008 VSS.n5007 585
R532 VSS.n4420 VSS.n1561 585
R533 VSS.n1566 VSS.n1561 585
R534 VSS.n4420 VSS.n4419 585
R535 VSS.n4419 VSS.n1566 585
R536 VSS.n4419 VSS.n4418 585
R537 VSS.n1389 VSS.n1387 585
R538 VSS.n1389 VSS.n209 585
R539 VSS.n4585 VSS.n1389 585
R540 VSS.n5535 VSS.n24 585
R541 VSS.n5535 VSS.n23 585
R542 VSS.n5536 VSS.n5535 585
R543 VSS.n5427 VSS.n5426 585
R544 VSS.n5428 VSS.n5427 585
R545 VSS.n5214 VSS.n5213 585
R546 VSS.n5215 VSS.n5214 585
R547 VSS.n4961 VSS.n4960 585
R548 VSS.n4962 VSS.n4961 585
R549 VSS.n5463 VSS.n57 585
R550 VSS.n5463 VSS.n13 585
R551 VSS.n5439 VSS.n13 585
R552 VSS.n5473 VSS.n57 585
R553 VSS.n5474 VSS.n5473 585
R554 VSS.n5473 VSS.n5472 585
R555 VSS.n4960 VSS.n4959 585
R556 VSS.n4959 VSS.n811 585
R557 VSS.n4959 VSS.n4958 585
R558 VSS.n5213 VSS.n5212 585
R559 VSS.n5212 VSS.n396 585
R560 VSS.n5212 VSS.n5211 585
R561 VSS.n5426 VSS.n5425 585
R562 VSS.n5425 VSS.n97 585
R563 VSS.n5425 VSS.n5424 585
R564 VSS.n5370 VSS.n5369 585
R565 VSS.n5373 VSS.n5372 585
R566 VSS.n5372 VSS.n5371 585
R567 VSS.n125 VSS.n123 585
R568 VSS.n127 VSS.n125 585
R569 VSS.n5411 VSS.n5410 585
R570 VSS.n5410 VSS.n5409 585
R571 VSS.n130 VSS.n126 585
R572 VSS.n5408 VSS.n126 585
R573 VSS.n5406 VSS.n5405 585
R574 VSS.n5407 VSS.n5406 585
R575 VSS.n133 VSS.n129 585
R576 VSS.n129 VSS.n128 585
R577 VSS.n5400 VSS.n5399 585
R578 VSS.n5399 VSS.n5398 585
R579 VSS.n5388 VSS.n134 585
R580 VSS.n5397 VSS.n134 585
R581 VSS.n5395 VSS.n5394 585
R582 VSS.n5396 VSS.n5395 585
R583 VSS.n5387 VSS.n102 585
R584 VSS.n5387 VSS.n5386 585
R585 VSS.n5418 VSS.n100 585
R586 VSS.n100 VSS.n99 585
R587 VSS.n5422 VSS.n5421 585
R588 VSS.n5423 VSS.n5422 585
R589 VSS.n5163 VSS.n96 585
R590 VSS.n5164 VSS.n5163 585
R591 VSS.n5161 VSS.n5159 585
R592 VSS.n5165 VSS.n5161 585
R593 VSS.n5198 VSS.n5197 585
R594 VSS.n5197 VSS.n5196 585
R595 VSS.n5168 VSS.n5162 585
R596 VSS.n5195 VSS.n5162 585
R597 VSS.n5193 VSS.n5192 585
R598 VSS.n5194 VSS.n5193 585
R599 VSS.n5171 VSS.n5167 585
R600 VSS.n5167 VSS.n5166 585
R601 VSS.n5187 VSS.n5186 585
R602 VSS.n5186 VSS.n5185 585
R603 VSS.n5175 VSS.n5172 585
R604 VSS.n5184 VSS.n5172 585
R605 VSS.n5182 VSS.n5181 585
R606 VSS.n5183 VSS.n5182 585
R607 VSS.n5174 VSS.n401 585
R608 VSS.n5174 VSS.n5173 585
R609 VSS.n5205 VSS.n399 585
R610 VSS.n399 VSS.n398 585
R611 VSS.n5209 VSS.n5208 585
R612 VSS.n5210 VSS.n5209 585
R613 VSS.n4910 VSS.n395 585
R614 VSS.n4911 VSS.n4910 585
R615 VSS.n4908 VSS.n4906 585
R616 VSS.n4912 VSS.n4908 585
R617 VSS.n4945 VSS.n4944 585
R618 VSS.n4944 VSS.n4943 585
R619 VSS.n4915 VSS.n4909 585
R620 VSS.n4942 VSS.n4909 585
R621 VSS.n4940 VSS.n4939 585
R622 VSS.n4941 VSS.n4940 585
R623 VSS.n4918 VSS.n4914 585
R624 VSS.n4914 VSS.n4913 585
R625 VSS.n4934 VSS.n4933 585
R626 VSS.n4933 VSS.n4932 585
R627 VSS.n4922 VSS.n4919 585
R628 VSS.n4931 VSS.n4919 585
R629 VSS.n4929 VSS.n4928 585
R630 VSS.n4930 VSS.n4929 585
R631 VSS.n4921 VSS.n816 585
R632 VSS.n4921 VSS.n4920 585
R633 VSS.n4952 VSS.n814 585
R634 VSS.n814 VSS.n813 585
R635 VSS.n4956 VSS.n4955 585
R636 VSS.n4957 VSS.n4956 585
R637 VSS.n3627 VSS.n810 585
R638 VSS.n3628 VSS.n3627 585
R639 VSS.n3625 VSS.n3623 585
R640 VSS.n3629 VSS.n3625 585
R641 VSS.n3667 VSS.n3666 585
R642 VSS.n3666 VSS.n3665 585
R643 VSS.n3632 VSS.n3626 585
R644 VSS.n3664 VSS.n3626 585
R645 VSS.n3662 VSS.n3661 585
R646 VSS.n3663 VSS.n3662 585
R647 VSS.n3635 VSS.n3631 585
R648 VSS.n3631 VSS.n3630 585
R649 VSS.n3656 VSS.n3655 585
R650 VSS.n3655 VSS.n3654 585
R651 VSS.n3639 VSS.n3636 585
R652 VSS.n3653 VSS.n3636 585
R653 VSS.n3651 VSS.n3650 585
R654 VSS.n3652 VSS.n3651 585
R655 VSS.n3644 VSS.n3638 585
R656 VSS.n3638 VSS.n3637 585
R657 VSS.n3645 VSS.n61 585
R658 VSS.n61 VSS.n60 585
R659 VSS.n5470 VSS.n5469 585
R660 VSS.n5471 VSS.n5470 585
R661 VSS.n5477 VSS.n5476 585
R662 VSS.n5476 VSS.n5475 585
R663 VSS.n5478 VSS.n52 585
R664 VSS.n52 VSS.n51 585
R665 VSS.n5490 VSS.n5489 585
R666 VSS.n5491 VSS.n5490 585
R667 VSS.n54 VSS.n48 585
R668 VSS.n5492 VSS.n48 585
R669 VSS.n5494 VSS.n50 585
R670 VSS.n5494 VSS.n5493 585
R671 VSS.n5495 VSS.n47 585
R672 VSS.n5495 VSS.n14 585
R673 VSS.n5497 VSS.n5496 585
R674 VSS.n5496 VSS.n15 585
R675 VSS.n44 VSS.n39 585
R676 VSS.n39 VSS.n38 585
R677 VSS.n5507 VSS.n5506 585
R678 VSS.n5508 VSS.n5507 585
R679 VSS.n41 VSS.n37 585
R680 VSS.n5509 VSS.n37 585
R681 VSS.n5512 VSS.n5511 585
R682 VSS.n5511 VSS.n5510 585
R683 VSS.n5513 VSS.n5 585
R684 VSS.n5 VSS.n3 585
R685 VSS.n2590 VSS.n2589 585
R686 VSS.n2620 VSS.n2619 585
R687 VSS.n2592 VSS.n2591 585
R688 VSS.n2618 VSS.n2592 585
R689 VSS.n2616 VSS.n2615 585
R690 VSS.n2617 VSS.n2616 585
R691 VSS.n2614 VSS.n2594 585
R692 VSS.n2594 VSS.n2593 585
R693 VSS.n2613 VSS.n2612 585
R694 VSS.n2612 VSS.n2611 585
R695 VSS.n2610 VSS.n2595 585
R696 VSS.n2610 VSS.n2609 585
R697 VSS.n2603 VSS.n2596 585
R698 VSS.n2608 VSS.n2596 585
R699 VSS.n2606 VSS.n2605 585
R700 VSS.n2607 VSS.n2606 585
R701 VSS.n2604 VSS.n2602 585
R702 VSS.n2602 VSS.n2597 585
R703 VSS.n2601 VSS.n2581 585
R704 VSS.n2601 VSS.n2600 585
R705 VSS.n2599 VSS.n2598 585
R706 VSS.n2677 VSS.n1858 585
R707 VSS.n2676 VSS.n1857 585
R708 VSS.n2580 VSS.n2579 585
R709 VSS.n2686 VSS.n2685 585
R710 VSS.n2687 VSS.n2686 585
R711 VSS.n2578 VSS.n2577 585
R712 VSS.n2688 VSS.n2578 585
R713 VSS.n2691 VSS.n2690 585
R714 VSS.n2690 VSS.n2689 585